<configuration>
    <input>
       <net-file value="simple.net.xml"/>
       <route-files value="flows/simple.rou.xml"/>
    </input>
	<time-to-teleport value="-1"/>
</configuration>