<routes>
        <route edges="gneE67 gneE39.48 gneE39.98 gneE39.950 gneE73 gneE73.20"/>

        <route edges="gneE67 gneE39.48 gneE39.98 gneE39.950 gneE73 gneE73.20 gneE73.36 gneE73.75 Main_1 Main_1.31 Main_1.65"/>

        <route edges="gneE38.47 gneE38.890 gneE65"/>

        <route edges="city_gneE36 gneE36.96 gneE36.123 gneE36.168 gneE39 gneE39.48 gneE39.98 gneE39.950 gneE73 gneE73.20 gneE73.36 gneE73.75 Main_1"/>

        <route edges="gneE115 gneE74.38 gneE74.85"/>

        <route edges="gneE50.135"/>

        <route edges="gneE23.41 gneE23.83 gneE23.292 gneE23.312 gneE39 gneE39.48 gneE39.98 gneE39.950 gneE73"/>

        <route edges="gneE39.950 gneE73 gneE73.20 gneE73.36 gneE73.75"/>

        <route edges="gneE36.123 gneE59 gneE25.25"/>

        <route edges="gneE23.292 gneE23.312 gneE39 gneE39.48 gneE39.98 gneE95 city_gneE71.34"/>

        <route edges="gneE74 gneE74.38 gneE74.85 gneE98"/>

        <route edges="gneE23.83 gneE23.292 gneE23.312 gneE39 gneE39.48 gneE39.98 gneE39.950"/>

        <route edges="gneE50.135 gneE67 gneE39.48 gneE39.98 gneE39.950 gneE73 gneE73.20 gneE73.36 gneE73.75 Main_1 Main_1.31"/>

        <route edges="gneE2 gneE23 gneE23.41 gneE23.83 gneE23.292 gneE23.312 gneE37"/>

        <route edges="city_gneE72 gneE97 gneE73.20"/>

        <route edges="city_gneE104 gneE115 gneE74.38"/>

        <route edges="gneE39.48 gneE39.98 gneE39.950 gneE73 gneE73.20 gneE73.36 gneE73.75"/>

        <route edges="city_gneE69 gneE69.164 gneE71"/>

        <route edges="gneE72.204 gneE70 city_gneE70.38"/>

        <route edges="gneE74 gneE74.38 gneE74.85 gneE74.304 gneE38 gneE38.47 gneE38.890 gneE38.113 gneE25 gneE25.25 Main_3"/>

        <route edges="city_gneE36 gneE36.96 gneE36.123 gneE36.168 gneE51"/>

        <route edges="city_gneE72 gneE72.204 gneE38 gneE38.47 gneE38.890 gneE38.113"/>

        <route edges="gneE23.83 gneE23.292 gneE23.312 gneE39 gneE39.48"/>

        <route edges="gneE36.96 gneE36.123 gneE36.168 gneE39 gneE39.48 gneE39.98 gneE39.950 gneE73 gneE73.20 gneE73.36"/>

        <route edges="gneE63 city_gneE51.33"/>

        <route edges="gneE74.38 gneE74.85 gneE74.304 gneE38 gneE38.47 gneE38.890"/>

        <route edges="city_gneE69 gneE99 gneE38.47 gneE38.890 gneE38.113"/>

        <route edges="city_gneE34 gneE23.41 gneE23.83 gneE23.292 gneE23.312 gneE39 gneE39.48 gneE39.98"/>

        <route edges="gneE23.292 gneE23.312 gneE37"/>

        <route edges="gneE39.950 gneE73 gneE73.20"/>

        <route edges="gneE59"/>

        <route edges="gneE50 gneE50.135 gneE67 gneE39.48 gneE39.98 gneE39.950 gneE73 gneE73.20 gneE73.36 gneE73.75 Main_1"/>

        <route edges="gneE74.85 gneE74.304 gneE38 gneE38.47 gneE38.890 gneE38.113 gneE51 city_gneE51.33"/>

        <route edges="gneE2 gneE23 gneE23.41 gneE23.83 gneE23.292 gneE23.312 gneE39 gneE39.48 gneE39.98 gneE39.950 gneE73 gneE73.20 gneE73.36 gneE73.75 Main_1"/>

        <route edges="gneE50 gneE50.135 gneE50.90 gneE25"/>

        <route edges="city_gneE104 gneE115 gneE74.38 gneE74.85 gneE74.304 gneE38 gneE38.47 gneE38.890 gneE65"/>

        <route edges="gneE39.48 gneE39.98 gneE39.950 gneE73 gneE73.20"/>

        <route edges="gneE50.135 gneE67 gneE39.48"/>

        <route edges="city_gneE69 gneE69.164 gneE73 gneE73.20 gneE73.36 gneE73.75 Main_1"/>

        <route edges="gneE23 gneE23.41 gneE23.83 gneE23.292 gneE23.312 gneE39 gneE39.48 gneE39.98 gneE39.950 gneE73 gneE73.20 gneE73.36 gneE73.75 Main_1 Main_1.31 Main_1.65"/>

        <route edges="gneE36.96 gneE36.123 gneE36.168 gneE39 gneE39.48 gneE39.98 gneE95 city_gneE71.34"/>

        <route edges="gneE2 gneE23 gneE23.41 gneE23.83 gneE23.292 gneE23.312 gneE39 gneE39.48 gneE39.98 gneE39.950"/>

        <route edges="gneE50.135 gneE67 gneE39.48 gneE39.98 gneE39.950 gneE73 gneE73.20 gneE73.36 gneE73.75"/>

        <route edges="Main_2 gneE106.238 gneE74 gneE74.38 gneE74.85 gneE98 city_gneE70.38"/>

        <route edges="gneE72.204 gneE38 gneE38.47 gneE38.890 gneE38.113 gneE25 gneE25.25 city_gneE16"/>

        <route edges="gneE38.890 gneE38.113 gneE51"/>

        <route edges="gneE23.292 gneE23.312 gneE39 gneE39.48 gneE39.98 gneE39.950 gneE73"/>

        <route edges="gneE106.238 gneE74 gneE74.38 gneE74.85 gneE98 city_gneE70.38"/>

        <route edges="gneE74.38 gneE74.85 gneE74.304 gneE38 gneE38.47 gneE38.890 gneE38.113 gneE51"/>

        <route edges="gneE23.292"/>

        <route edges="gneE23.312 gneE39 gneE39.48 gneE39.98 gneE39.950 gneE73 gneE73.20"/>

        <route edges="gneE72.204 gneE38 gneE38.47 gneE38.890 gneE38.113 gneE25 gneE25.25 Main_3"/>

        <route edges="gneE69.164 gneE73 gneE73.20 gneE73.36"/>

        <route edges="gneE72.204 gneE38 gneE38.47 gneE38.890 gneE38.113 gneE25"/>

        <route edges="gneE74.85 gneE74.304 gneE38 gneE38.47 gneE38.890"/>

        <route edges="gneE59"/>

        <route edges="gneE23.83 gneE23.292 gneE23.312 gneE39 gneE39.48 gneE39.98 gneE39.950 gneE73 gneE73.20"/>

        <route edges="gneE67 gneE39.48 gneE39.98 gneE39.950"/>

        <route edges="gneE2 gneE23"/>

        <route edges="gneE23.83 gneE23.292 gneE23.312 gneE39 gneE39.48 gneE39.98 gneE95"/>

        <route edges="gneE73"/>

        <route edges="gneE39.950"/>

        <route edges="gneE50 gneE50.135 gneE67 gneE39.48 gneE39.98 gneE39.950 gneE73 gneE73.20"/>

        <route edges="gneE25.25"/>

        <route edges="gneE115 gneE74.38 gneE74.85 gneE74.304 gneE38 gneE38.47 gneE38.890 gneE65 city_gneE37.28"/>

        <route edges="city_gneE36 gneE36.96 gneE36.123 gneE36.168 gneE51"/>

        <route edges="Main_2 gneE106.238 gneE74 gneE74.38 gneE74.85 gneE74.304 gneE38 gneE38.47 gneE38.890 gneE38.113 gneE25 gneE25.25"/>

        <route edges="gneE23.83 gneE23.292 gneE23.312 gneE37 city_gneE37.28"/>

        <route edges="gneE38.890 gneE38.113 gneE51 city_gneE51.33"/>

        <route edges="gneE106.238 gneE74"/>

        <route edges="gneE74.85 gneE74.304 gneE38 gneE38.47 gneE38.890 gneE38.113 gneE51 city_gneE51.33"/>

        <route edges="gneE115 gneE74.38 gneE74.85 gneE74.304 gneE38 gneE38.47 gneE38.890 gneE65 city_gneE37.28"/>

        <route edges="gneE36.96 gneE36.123 gneE36.168 gneE51"/>

        <route edges="gneE39 gneE39.48 gneE39.98 gneE39.950 gneE73 gneE73.20 gneE73.36 gneE73.75 Main_1 Main_1.31 Main_1.65"/>

        <route edges="gneE23.292 gneE23.312 gneE39 gneE39.48 gneE39.98 gneE39.950 gneE73 gneE73.20 gneE73.36"/>

        <route edges="gneE104.175 Main_1 Main_1.31 Main_1.65"/>

        <route edges="gneE50.135 gneE50.90 gneE37"/>

        <route edges="gneE67 gneE39.48"/>

        <route edges="gneE23.292 gneE23.312 gneE39 gneE39.48 gneE39.98 gneE95 city_gneE71.34"/>

        <route edges="gneE67 gneE39.48 gneE39.98 gneE39.950"/>

        <route edges="gneE74.38 gneE74.85 gneE74.304 gneE38 gneE38.47 gneE38.890 gneE38.113 gneE25 gneE25.25 city_gneE16"/>

        <route edges="gneE50.135 gneE50.90 gneE37 city_gneE37.28"/>

        <route edges="gneE74.85 gneE74.304 gneE38 gneE38.47 gneE38.890 gneE38.113 gneE25"/>

        <route edges="city_gneE72 gneE97 gneE73.20 gneE73.36 gneE73.75 Main_1"/>

        <route edges="city_gneE34 gneE23.41 gneE23.83 gneE23.292 gneE23.312 gneE39"/>

        <route edges="gneE115 gneE74.38"/>

        <route edges="city_gneE69 gneE69.164 gneE73"/>

        <route edges="gneE36.168 gneE39 gneE39.48 gneE39.98 gneE39.950 gneE73 gneE73.20 gneE73.36 gneE73.75 Main_1 Main_1.31 Main_1.65"/>

        <route edges="gneE36.123 gneE36.168 gneE39 gneE39.48 gneE39.98 gneE39.950 gneE73 gneE73.20 gneE73.36"/>

        <route edges="gneE36.123 gneE59 gneE25.25"/>

        <route edges="gneE23.312 gneE37 city_gneE37.28"/>

        <route edges="city_gneE36 gneE36.96 gneE36.123 gneE59 gneE25.25 city_gneE16"/>

        <route edges="gneE38.890 gneE65 city_gneE37.28"/>

        <route edges="gneE23 gneE23.41 gneE23.83 gneE23.292 gneE23.312 gneE39 gneE39.48"/>

        <route edges="gneE73.20 gneE73.36"/>

        <route edges="gneE36.96 gneE36.123 gneE36.168"/>

        <route edges="gneE38"/>

        <route edges="gneE38.890 gneE65"/>

        <route edges="gneE73.20 gneE73.36"/>

        <route edges="gneE36.96 gneE36.123 gneE59 gneE25.25 city_gneE16"/>

        <route edges="city_gneE69 gneE69.164 gneE71 city_gneE71.34"/>

        <route edges="Main_2 gneE106.238 gneE74 gneE74.38 gneE74.85 gneE98 city_gneE70.38"/>

        <route edges="city_gneE34 gneE23.41 gneE23.83 gneE23.292 gneE23.312 gneE39 gneE39.48"/>

        <route edges="gneE36.123 gneE36.168 gneE51 city_gneE51.33"/>

        <route edges="gneE67 gneE39.48 gneE39.98 gneE95"/>

        <route edges="gneE36.168 gneE39 gneE39.48 gneE39.98 gneE95 city_gneE71.34"/>

        <route edges="gneE50.135 gneE67 gneE39.48 gneE39.98 gneE95 city_gneE71.34"/>

        <route edges="gneE39.48 gneE39.98 gneE39.950 gneE73 gneE73.20 gneE73.36 gneE73.75 Main_1"/>

        <route edges="gneE50 gneE50.135 gneE67 gneE39.48 gneE39.98 gneE39.950 gneE73 gneE73.20 gneE73.36"/>

        <route edges="gneE23.292 gneE23.312 gneE39 gneE39.48 gneE39.98 gneE95"/>

        <route edges="gneE50 gneE50.135 gneE67 gneE39.48 gneE39.98 gneE39.950 gneE73 gneE73.20"/>

        <route edges="gneE38.113"/>

        <route edges="gneE39 gneE39.48 gneE39.98 gneE95"/>

        <route edges="city_gneE69 gneE69.164 gneE71"/>

        <route edges="gneE23.312 gneE39"/>

        <route edges="gneE115 gneE74.38 gneE74.85 gneE74.304 gneE38 gneE38.47 gneE38.890"/>

        <route edges="gneE97 gneE73.20 gneE73.36 gneE73.75 Main_1 Main_1.31"/>

        <route edges="gneE23 gneE23.41 gneE23.83 gneE23.292 gneE23.312 gneE39 gneE39.48 gneE39.98 gneE39.950"/>

        <route edges="gneE25.25 Main_3"/>

        <route edges="gneE74.85 gneE74.304 gneE38 gneE38.47"/>

        <route edges="gneE23.41"/>

        <route edges="gneE50 gneE50.135 gneE67 gneE39.48 gneE39.98 gneE39.950 gneE73 gneE73.20 gneE73.36 gneE73.75 Main_1 Main_1.31 Main_1.65"/>

        <route edges="gneE23.312 gneE39 gneE39.48 gneE39.98 gneE95 city_gneE71.34"/>

        <route edges="gneE69.164"/>

        <route edges="Main_2 gneE106.238 gneE74 gneE74.38 gneE74.85 gneE74.304 gneE38 gneE38.47"/>

        <route edges="gneE23 gneE23.41 gneE23.83 gneE23.292 gneE23.312 gneE39 gneE39.48 gneE39.98 gneE39.950 gneE73 gneE73.20 gneE73.36 gneE73.75 Main_1 Main_1.31"/>

        <route edges="gneE2 gneE23 gneE23.41 gneE23.83 gneE23.292 gneE63 city_gneE51.33"/>

        <route edges="city_gneE69 gneE99 gneE38.47 gneE38.890 gneE38.113"/>

        <route edges="gneE23.312 gneE39 gneE39.48 gneE39.98 gneE39.950"/>

        <route edges="gneE23.41 gneE23.83 gneE23.292 gneE23.312 gneE39 gneE39.48 gneE39.98 gneE95"/>

        <route edges="gneE38.890 gneE38.113"/>

        <route edges="gneE73 gneE73.20 gneE73.36 gneE73.75 Main_1"/>

        <route edges="gneE23.312 gneE39 gneE39.48 gneE39.98 gneE39.950 gneE73 gneE73.20 gneE73.36 gneE73.75 Main_1"/>

        <route edges="Main_2 gneE106.238 gneE74 gneE74.38 gneE74.85 gneE74.304 gneE38 gneE38.47 gneE38.890 gneE38.113 gneE51"/>

        <route edges="city_gneE36 gneE36.96 gneE36.123 gneE36.168 gneE39 gneE39.48 gneE39.98 gneE39.950"/>

        <route edges="gneE50 gneE50.135 gneE67 gneE39.48 gneE39.98 gneE39.950 gneE73 gneE73.20 gneE73.36 gneE73.75 Main_1 Main_1.31 Main_1.65"/>

        <route edges="gneE23.41"/>

        <route edges="city_gneE69 gneE99 gneE38.47 gneE38.890 gneE38.113"/>

        <route edges="gneE36.96 gneE36.123 gneE36.168 gneE39 gneE39.48 gneE39.98 gneE39.950 gneE73 gneE73.20 gneE73.36 gneE73.75 Main_1"/>

        <route edges="gneE23.41 gneE23.83 gneE23.292 gneE23.312 gneE39 gneE39.48 gneE39.98 gneE95 city_gneE71.34"/>

        <route edges="gneE39 gneE39.48 gneE39.98 gneE39.950 gneE73 gneE73.20 gneE73.36 gneE73.75 Main_1 Main_1.31 Main_1.65"/>

        <route edges="gneE38.47 gneE38.890"/>

        <route edges="city_gneE36 gneE36.96 gneE36.123 gneE36.168 gneE39 gneE39.48 gneE39.98 gneE39.950"/>

        <route edges="city_gneE69 gneE69.164 gneE73"/>

        <route edges="Main_2 gneE106.238 gneE74 gneE74.38 gneE74.85 gneE98 city_gneE70.38"/>

        <route edges="gneE39.48 gneE39.98 gneE39.950 gneE73 gneE73.20 gneE73.36"/>

        <route edges="gneE59 gneE25.25 Main_3"/>

        <route edges="gneE23.312 gneE37"/>

        <route edges="gneE36.123 gneE36.168 gneE39 gneE39.48 gneE39.98 gneE39.950 gneE73 gneE73.20 gneE73.36 gneE73.75 Main_1 Main_1.31 Main_1.65"/>

        <route edges="city_gneE72 gneE72.204 gneE38 gneE38.47 gneE38.890 gneE38.113 gneE51"/>

        <route edges="city_gneE34 gneE23.41 gneE23.83 gneE23.292 gneE63 city_gneE51.33"/>

        <route edges="city_gneE104 gneE115 gneE74.38 gneE74.85 gneE74.304 gneE38 gneE38.47 gneE38.890"/>

        <route edges="gneE23.41 gneE23.83 gneE23.292 gneE23.312 gneE37"/>

        <route edges="gneE38.47 gneE38.890 gneE65 city_gneE37.28"/>

        <route edges="gneE23.41 gneE23.83"/>

        <route edges="gneE104.175"/>

        <route edges="gneE38.890"/>

        <route edges="gneE38.113"/>

        <route edges="gneE39.48 gneE39.98 gneE39.950 gneE73 gneE73.20 gneE73.36 gneE73.75 Main_1 Main_1.31 Main_1.65"/>

        <route edges="gneE73.75"/>

        <route edges="gneE36.96 gneE36.123"/>

        <route edges="gneE115 gneE74.38 gneE74.85 gneE74.304 gneE38 gneE38.47 gneE38.890 gneE38.113"/>

        <route edges="gneE36.168 gneE39 gneE39.48 gneE39.98 gneE39.950 gneE73 gneE73.20 gneE73.36"/>

        <route edges="gneE2 gneE23 gneE23.41 gneE23.83 gneE23.292 gneE23.312 gneE37 city_gneE37.28"/>

        <route edges="gneE23.41 gneE23.83 gneE23.292 gneE23.312 gneE39 gneE39.48 gneE39.98 gneE39.950 gneE73 gneE73.20 gneE73.36 gneE73.75 Main_1 Main_1.31"/>

        <route edges="gneE2 gneE23 gneE23.41 gneE23.83 gneE23.292 gneE23.312 gneE39 gneE39.48 gneE39.98 gneE39.950 gneE73 gneE73.20 gneE73.36 gneE73.75 Main_1 Main_1.31"/>

        <route edges="gneE115 gneE74.38 gneE74.85 gneE74.304 gneE38 gneE38.47 gneE38.890 gneE38.113 gneE25 gneE25.25 city_gneE16"/>

        <route edges="gneE23 gneE23.41 gneE23.83 gneE23.292 gneE23.312 gneE39 gneE39.48 gneE39.98 gneE39.950 gneE73 gneE73.20"/>

        <route edges="gneE23.41 gneE23.83 gneE23.292 gneE23.312 gneE39 gneE39.48 gneE39.98 gneE39.950 gneE73 gneE73.20 gneE73.36 gneE73.75"/>

        <route edges="city_gneE34 gneE23.41 gneE23.83 gneE23.292 gneE23.312 gneE39 gneE39.48 gneE39.98 gneE39.950 gneE73 gneE73.20 gneE73.36 gneE73.75 Main_1 Main_1.31"/>

        <route edges="gneE23 gneE23.41 gneE23.83 gneE23.292 gneE23.312 gneE37 city_gneE37.28"/>

        <route edges="gneE74.85 gneE74.304 gneE38"/>

        <route edges="gneE74.38 gneE74.85 gneE74.304 gneE38 gneE38.47 gneE38.890 gneE38.113"/>

        <route edges="gneE38.113 gneE25 gneE25.25"/>

        <route edges="gneE23.41 gneE23.83 gneE23.292 gneE23.312 gneE39 gneE39.48"/>

        <route edges="gneE36.96 gneE36.123 gneE36.168 gneE39 gneE39.48 gneE39.98 gneE39.950 gneE73 gneE73.20"/>

        <route edges="gneE36.123 gneE36.168 gneE51 city_gneE51.33"/>

        <route edges="gneE23.41 gneE23.83 gneE23.292 gneE23.312 gneE39 gneE39.48 gneE39.98 gneE39.950"/>

        <route edges="city_gneE36 gneE36.96 gneE36.123 gneE36.168 gneE39 gneE39.48 gneE39.98 gneE39.950 gneE73"/>

        <route edges="gneE38.113 gneE25 gneE25.25 city_gneE16"/>

        <route edges="gneE2 gneE23 gneE23.41 gneE23.83 gneE23.292 gneE63"/>

        <route edges="gneE99 gneE38.47"/>

        <route edges="gneE74 gneE74.38 gneE74.85 gneE74.304 gneE38 gneE38.47 gneE38.890 gneE65"/>

        <route edges="gneE39 gneE39.48 gneE39.98 gneE39.950 gneE73 gneE73.20 gneE73.36 gneE73.75 Main_1 Main_1.31"/>

        <route edges="gneE72.204 gneE38 gneE38.47 gneE38.890 gneE38.113 gneE51"/>

        <route edges="gneE23 gneE23.41 gneE23.83 gneE23.292"/>

        <route edges="gneE99 gneE38.47 gneE38.890 gneE38.113 gneE25 gneE25.25 city_gneE16"/>

        <route edges="gneE50 gneE50.135 gneE67 gneE39.48"/>

        <route edges="gneE73"/>

        <route edges="city_gneE72 gneE97 gneE73.20 gneE73.36 gneE73.75"/>

        <route edges="city_gneE69 gneE99 gneE38.47 gneE38.890 gneE65"/>

        <route edges="gneE74.304 gneE38 gneE38.47 gneE38.890 gneE38.113"/>

        <route edges="gneE23.312 gneE37 city_gneE37.28"/>

        <route edges="gneE72.204 gneE38 gneE38.47 gneE38.890 gneE38.113 gneE25 gneE25.25 city_gneE16"/>

        <route edges="city_gneE72 gneE72.204 gneE38 gneE38.47 gneE38.890 gneE65"/>

        <route edges="gneE23 gneE23.41 gneE23.83 gneE23.292 gneE23.312 gneE39 gneE39.48 gneE39.98 gneE39.950"/>

        <route edges="gneE39.98 gneE39.950"/>

        <route edges="city_gneE69 gneE99 gneE38.47 gneE38.890 gneE38.113"/>

        <route edges="gneE23.41 gneE23.83 gneE23.292 gneE23.312 gneE39 gneE39.48 gneE39.98 gneE39.950"/>

        <route edges="gneE50.90"/>

        <route edges="gneE39 gneE39.48 gneE39.98 gneE95"/>

        <route edges="gneE72.204 gneE38 gneE38.47 gneE38.890 gneE38.113 gneE25 gneE25.25 city_gneE16"/>

        <route edges="gneE36.168 gneE39 gneE39.48 gneE39.98 gneE39.950 gneE73 gneE73.20 gneE73.36"/>

        <route edges="city_gneE72 gneE72.204 gneE38 gneE38.47 gneE38.890 gneE38.113 gneE25 gneE25.25 Main_3"/>

        <route edges="gneE73.36 gneE73.75 Main_1 Main_1.31 Main_1.65"/>

        <route edges="city_gneE104 gneE115 gneE74.38 gneE74.85 gneE74.304"/>

        <route edges="gneE23.41 gneE23.83 gneE23.292 gneE63 city_gneE51.33"/>

        <route edges="gneE106.238 gneE74 gneE74.38 gneE74.85"/>

        <route edges="gneE106.238 gneE74 gneE74.38 gneE74.85 gneE74.304 gneE38 gneE38.47"/>

        <route edges="gneE72.204 gneE38 gneE38.47 gneE38.890"/>

        <route edges="Main_2 gneE106.238"/>

        <route edges="gneE106.238 gneE74"/>

        <route edges="gneE2 gneE23 gneE23.41"/>

        <route edges="city_gneE34 gneE23.41 gneE23.83 gneE23.292 gneE23.312 gneE39 gneE39.48 gneE39.98 gneE39.950 gneE73 gneE73.20 gneE73.36 gneE73.75 Main_1"/>

        <route edges="gneE38.113 gneE25 gneE25.25 city_gneE16"/>

        <route edges="gneE73.20 gneE73.36"/>

        <route edges="city_gneE72 gneE72.204 gneE38 gneE38.47 gneE38.890 gneE65 city_gneE37.28"/>

        <route edges="gneE36.168 gneE39 gneE39.48 gneE39.98 gneE95 city_gneE71.34"/>

        <route edges="gneE36.123 gneE36.168 gneE39"/>

        <route edges="gneE23.292 gneE23.312 gneE39 gneE39.48"/>

        <route edges="gneE2 gneE23 gneE23.41 gneE23.83 gneE23.292 gneE23.312"/>

        <route edges="city_gneE36 gneE36.96 gneE36.123 gneE36.168 gneE39 gneE39.48 gneE39.98 gneE39.950"/>

        <route edges="gneE23.292 gneE23.312"/>

        <route edges="city_gneE36 gneE36.96 gneE36.123 gneE36.168 gneE39 gneE39.48 gneE39.98"/>

        <route edges="gneE23.292 gneE63"/>

        <route edges="gneE115 gneE74.38 gneE74.85"/>

        <route edges="gneE73"/>

        <route edges="gneE38 gneE38.47 gneE38.890 gneE38.113 gneE51"/>

        <route edges="gneE73 gneE73.20 gneE73.36"/>

        <route edges="gneE74.304 gneE38 gneE38.47 gneE38.890 gneE38.113 gneE25 gneE25.25"/>

        <route edges="gneE36.123 gneE59 gneE25.25"/>

        <route edges="city_gneE72 gneE72.204 gneE38 gneE38.47 gneE38.890 gneE38.113"/>

        <route edges="gneE23 gneE23.41 gneE23.83 gneE23.292 gneE23.312 gneE39 gneE39.48 gneE39.98 gneE95"/>

        <route edges="gneE74.85 gneE74.304 gneE38 gneE38.47 gneE38.890"/>

        <route edges="gneE71 city_gneE71.34"/>

        <route edges="gneE23.83 gneE23.292 gneE23.312 gneE39 gneE39.48 gneE39.98 gneE95 city_gneE71.34"/>

        <route edges="gneE50.135 gneE50.90 gneE25 gneE25.25 Main_3"/>

        <route edges="gneE36.96 gneE36.123 gneE59 gneE25.25 Main_3"/>

        <route edges="gneE38 gneE38.47 gneE38.890 gneE38.113 gneE25"/>

        <route edges="gneE25 gneE25.25 city_gneE16"/>

        <route edges="city_gneE104 gneE104.175 Main_1 Main_1.31"/>

        <route edges="gneE23 gneE23.41 gneE23.83 gneE23.292 gneE23.312 gneE39 gneE39.48 gneE39.98"/>

        <route edges="gneE50 gneE50.135 gneE67 gneE39.48 gneE39.98 gneE39.950 gneE73 gneE73.20 gneE73.36 gneE73.75"/>

        <route edges="gneE73.36 gneE73.75 Main_1"/>

        <route edges="gneE38 gneE38.47 gneE38.890 gneE38.113 gneE25"/>

        <route edges="gneE39.48 gneE39.98 gneE95 city_gneE71.34"/>

        <route edges="gneE2 gneE23 gneE23.41 gneE23.83 gneE23.292 gneE23.312 gneE39 gneE39.48 gneE39.98 gneE39.950 gneE73 gneE73.20 gneE73.36 gneE73.75 Main_1 Main_1.31 Main_1.65"/>

        <route edges="city_gneE34 gneE23.41 gneE23.83 gneE23.292 gneE23.312 gneE39 gneE39.48 gneE39.98 gneE39.950 gneE73"/>

        <route edges="gneE23.292 gneE23.312 gneE39 gneE39.48 gneE39.98"/>

        <route edges="gneE50 gneE50.135 gneE67 gneE39.48 gneE39.98 gneE39.950 gneE73 gneE73.20 gneE73.36 gneE73.75 Main_1 Main_1.31 Main_1.65"/>

        <route edges="gneE23.312 gneE39 gneE39.48 gneE39.98 gneE95 city_gneE71.34"/>

        <route edges="city_gneE36 gneE36.96 gneE36.123 gneE59 gneE25.25 city_gneE16"/>

        <route edges="city_gneE34 gneE23.41 gneE23.83 gneE23.292 gneE23.312 gneE39 gneE39.48 gneE39.98 gneE39.950 gneE73 gneE73.20 gneE73.36"/>

        <route edges="gneE72.204 gneE38 gneE38.47 gneE38.890 gneE38.113"/>

        <route edges="gneE73.36 gneE73.75 Main_1 Main_1.31"/>

        <route edges="city_gneE69 gneE99 gneE38.47 gneE38.890"/>

        <route edges="gneE67 gneE39.48 gneE39.98"/>

        <route edges="gneE106.238 gneE74 gneE74.38 gneE74.85 gneE74.304 gneE38 gneE38.47 gneE38.890"/>

        <route edges="gneE50 gneE50.135 gneE50.90"/>

        <route edges="gneE36.96 gneE36.123 gneE36.168 gneE39 gneE39.48 gneE39.98 gneE95 city_gneE71.34"/>

        <route edges="gneE36.96 gneE36.123 gneE36.168 gneE39 gneE39.48 gneE39.98 gneE39.950 gneE73 gneE73.20 gneE73.36 gneE73.75 Main_1 Main_1.31 Main_1.65"/>

        <route edges="gneE74 gneE74.38 gneE74.85 gneE74.304 gneE38 gneE38.47 gneE38.890 gneE65 city_gneE37.28"/>

        <route edges="gneE74 gneE74.38 gneE74.85 gneE74.304 gneE38 gneE38.47 gneE38.890 gneE38.113 gneE25 gneE25.25 Main_3"/>

        <route edges="gneE39.950 gneE73 gneE73.20 gneE73.36"/>

        <route edges="city_gneE34 gneE23.41 gneE23.83 gneE23.292 gneE23.312 gneE39 gneE39.48 gneE39.98 gneE39.950 gneE73 gneE73.20 gneE73.36 gneE73.75 Main_1 Main_1.31"/>

        <route edges="Main_2 gneE106.238 gneE74 gneE74.38 gneE74.85 gneE74.304 gneE38 gneE38.47 gneE38.890"/>

        <route edges="gneE106.238 gneE74 gneE74.38"/>

        <route edges="Main_2 gneE106.238 gneE74 gneE74.38 gneE74.85 gneE74.304 gneE38 gneE38.47 gneE38.890 gneE38.113"/>

        <route edges="gneE2 gneE23 gneE23.41 gneE23.83 gneE23.292 gneE23.312 gneE37"/>

        <route edges="gneE39.48 gneE39.98 gneE39.950 gneE73 gneE73.20"/>

        <route edges="Main_2 gneE106.238 gneE74 gneE74.38 gneE74.85 gneE74.304 gneE38 gneE38.47 gneE38.890 gneE38.113 gneE51"/>

        <route edges="gneE36.123 gneE36.168 gneE39 gneE39.48"/>

        <route edges="city_gneE72 gneE72.204 gneE38 gneE38.47 gneE38.890 gneE38.113 gneE51"/>

        <route edges="city_gneE69 gneE69.164"/>

        <route edges="gneE73 gneE73.20 gneE73.36 gneE73.75 Main_1 Main_1.31 Main_1.65"/>

        <route edges="city_gneE72 gneE72.204 gneE38 gneE38.47 gneE38.890"/>

        <route edges="gneE50.135 gneE50.90 gneE25 gneE25.25 city_gneE16"/>

        <route edges="city_gneE69 gneE99 gneE38.47 gneE38.890 gneE38.113 gneE51"/>

        <route edges="city_gneE69 gneE69.164 gneE73 gneE73.20"/>

        <route edges="gneE74.85 gneE98"/>

        <route edges="Main_2 gneE106.238 gneE74 gneE74.38 gneE74.85 gneE74.304 gneE38 gneE38.47 gneE38.890 gneE65 city_gneE37.28"/>

        <route edges="gneE23.83 gneE23.292 gneE23.312 gneE39 gneE39.48 gneE39.98 gneE39.950 gneE73 gneE73.20 gneE73.36 gneE73.75 Main_1 Main_1.31 Main_1.65"/>

        <route edges="city_gneE34 gneE23.41 gneE23.83 gneE23.292 gneE23.312 gneE39 gneE39.48 gneE39.98 gneE39.950 gneE73"/>

        <route edges="gneE23 gneE23.41 gneE23.83 gneE23.292 gneE23.312 gneE39 gneE39.48 gneE39.98 gneE95"/>

        <route edges="gneE36.123 gneE59 gneE25.25 city_gneE16"/>

        <route edges="gneE36.96 gneE36.123 gneE36.168 gneE39 gneE39.48 gneE39.98 gneE39.950 gneE73 gneE73.20"/>

        <route edges="gneE25 gneE25.25 Main_3"/>

        <route edges="gneE74 gneE74.38"/>

        <route edges="gneE74 gneE74.38"/>

        <route edges="city_gneE69 gneE99 gneE38.47 gneE38.890 gneE38.113"/>

        <route edges="gneE50.135 gneE67 gneE39.48 gneE39.98 gneE39.950 gneE73 gneE73.20 gneE73.36 gneE73.75 Main_1"/>

        <route edges="gneE73.20 gneE73.36 gneE73.75"/>

        <route edges="gneE37 city_gneE37.28"/>

        <route edges="gneE50.135 gneE67 gneE39.48 gneE39.98 gneE39.950 gneE73 gneE73.20"/>

        <route edges="gneE23.292 gneE23.312 gneE39 gneE39.48 gneE39.98 gneE39.950 gneE73"/>

        <route edges="gneE23.292 gneE63"/>

        <route edges="gneE23.83 gneE23.292 gneE23.312 gneE39 gneE39.48 gneE39.98 gneE39.950 gneE73 gneE73.20 gneE73.36 gneE73.75"/>

        <route edges="gneE23.83 gneE23.292 gneE23.312 gneE39 gneE39.48 gneE39.98 gneE39.950 gneE73 gneE73.20 gneE73.36 gneE73.75"/>

        <route edges="gneE37"/>

        <route edges="gneE23.312 gneE37 city_gneE37.28"/>

        <route edges="gneE115"/>

        <route edges="gneE73.20 gneE73.36 gneE73.75 Main_1 Main_1.31"/>

        <route edges="gneE50 gneE50.135 gneE50.90 gneE25 gneE25.25 Main_3"/>

        <route edges="gneE69.164 gneE73 gneE73.20 gneE73.36 gneE73.75 Main_1 Main_1.31 Main_1.65"/>

        <route edges="gneE39 gneE39.48 gneE39.98 gneE39.950 gneE73 gneE73.20 gneE73.36 gneE73.75 Main_1"/>

        <route edges="gneE36.123 gneE36.168 gneE39 gneE39.48 gneE39.98 gneE39.950 gneE73 gneE73.20"/>

        <route edges="city_gneE34 gneE23.41 gneE23.83 gneE23.292 gneE23.312 gneE39 gneE39.48 gneE39.98 gneE39.950"/>

        <route edges="gneE23.292 gneE23.312 gneE39 gneE39.48 gneE39.98 gneE39.950 gneE73"/>

        <route edges="gneE74.38 gneE74.85 gneE74.304 gneE38 gneE38.47 gneE38.890 gneE65 city_gneE37.28"/>

        <route edges="gneE104.175"/>

        <route edges="gneE38 gneE38.47 gneE38.890 gneE38.113 gneE25 gneE25.25"/>

        <route edges="gneE50.135 gneE67 gneE39.48 gneE39.98 gneE39.950 gneE73 gneE73.20 gneE73.36 gneE73.75 Main_1 Main_1.31"/>

        <route edges="gneE39 gneE39.48"/>

        <route edges="city_gneE72 gneE72.204 gneE38 gneE38.47 gneE38.890 gneE38.113 gneE25 gneE25.25"/>

        <route edges="Main_2 gneE106.238 gneE74 gneE74.38 gneE74.85 gneE74.304 gneE38 gneE38.47 gneE38.890 gneE38.113"/>

        <route edges="gneE50 gneE50.135 gneE67 gneE39.48 gneE39.98 gneE39.950 gneE73 gneE73.20 gneE73.36 gneE73.75"/>

        <route edges="gneE74 gneE74.38 gneE74.85 gneE98 city_gneE70.38"/>

        <route edges="gneE72.204 gneE38 gneE38.47 gneE38.890 gneE38.113"/>

        <route edges="gneE69.164 gneE71"/>

        <route edges="gneE23.292 gneE23.312"/>

        <route edges="gneE23.312 gneE39 gneE39.48 gneE39.98 gneE39.950 gneE73"/>

        <route edges="gneE74.38 gneE74.85 gneE98 city_gneE70.38"/>

        <route edges="city_gneE34 gneE23.41 gneE23.83 gneE23.292 gneE23.312 gneE39"/>

        <route edges="gneE39 gneE39.48 gneE39.98 gneE39.950 gneE73 gneE73.20 gneE73.36"/>

        <route edges="gneE39"/>

        <route edges="city_gneE104 gneE115 gneE74.38 gneE74.85 gneE74.304 gneE38 gneE38.47 gneE38.890 gneE38.113 gneE25 gneE25.25"/>

        <route edges="city_gneE34 gneE23.41 gneE23.83 gneE23.292 gneE23.312 gneE39 gneE39.48 gneE39.98 gneE39.950 gneE73"/>

        <route edges="gneE36.123 gneE36.168 gneE39 gneE39.48 gneE39.98 gneE95 city_gneE71.34"/>

        <route edges="gneE2 gneE23 gneE23.41 gneE23.83 gneE23.292 gneE23.312 gneE37 city_gneE37.28"/>

        <route edges="Main_2 city_gneE117"/>

        <route edges="gneE106.238 gneE74 gneE74.38 gneE74.85 gneE74.304 gneE38 gneE38.47 gneE38.890"/>

        <route edges="gneE67 gneE39.48 gneE39.98 gneE39.950 gneE73"/>

        <route edges="gneE74.38 gneE74.85 gneE98"/>

        <route edges="city_gneE69 gneE99 gneE38.47"/>

        <route edges="gneE115 gneE74.38 gneE74.85 gneE98 city_gneE70.38"/>

        <route edges="gneE23.312 gneE39 gneE39.48 gneE39.98 gneE39.950 gneE73 gneE73.20 gneE73.36 gneE73.75 Main_1 Main_1.31"/>

        <route edges="gneE36.96 gneE36.123 gneE36.168"/>

        <route edges="gneE23.41 gneE23.83 gneE23.292 gneE23.312 gneE39 gneE39.48 gneE39.98 gneE39.950"/>

        <route edges="gneE74.38 gneE74.85 gneE74.304 gneE38 gneE38.47 gneE38.890 gneE38.113 gneE51"/>

        <route edges="gneE67 gneE39.48 gneE39.98 gneE95 city_gneE71.34"/>

        <route edges="gneE38.113"/>

        <route edges="gneE73.36 gneE73.75"/>

        <route edges="gneE36.123 gneE36.168 gneE39 gneE39.48 gneE39.98 gneE39.950"/>

        <route edges="gneE39 gneE39.48 gneE39.98 gneE39.950"/>

        <route edges="city_gneE72 gneE72.204 gneE38 gneE38.47 gneE38.890 gneE38.113 gneE51"/>

        <route edges="gneE74.304 gneE38 gneE38.47 gneE38.890 gneE38.113 gneE51"/>

        <route edges="city_gneE104 gneE115"/>

        <route edges="gneE72.204 gneE70"/>

        <route edges="gneE39 gneE39.48 gneE39.98 gneE39.950 gneE73"/>

        <route edges="city_gneE104 gneE115 gneE74.38 gneE74.85 gneE74.304 gneE38 gneE38.47 gneE38.890 gneE38.113 gneE25 gneE25.25"/>

        <route edges="gneE50.135 gneE67"/>

        <route edges="Main_2 gneE106.238 gneE74 gneE74.38 gneE74.85 gneE74.304 gneE38 gneE38.47 gneE38.890 gneE65"/>

        <route edges="city_gneE34 gneE23.41 gneE23.83 gneE23.292 gneE23.312 gneE39 gneE39.48 gneE39.98 gneE39.950 gneE73 gneE73.20 gneE73.36 gneE73.75 Main_1 Main_1.31"/>

        <route edges="gneE50.135 gneE67 gneE39.48 gneE39.98 gneE39.950 gneE73 gneE73.20 gneE73.36 gneE73.75 Main_1 Main_1.31"/>

        <route edges="gneE74.85 gneE74.304 gneE38 gneE38.47 gneE38.890 gneE38.113 gneE25 gneE25.25 Main_3"/>
