<?xml version="1.0" encoding="UTF-8"?>

<!-- generated on 12/15/19 10:29:25 by Eclipse SUMO netedit Version 1.2.0
<configuration xmlns:xsi="http://www.w3.org/2001/XMLSchema-instance" xsi:noNamespaceSchemaLocation="http://sumo.dlr.de/xsd/netconvertConfiguration.xsd">

    <input>
        <sumo-net-file value="C:\Users\Alexey\GDrive\projects\RL_TLS\Networks\derech_akko_haifa.net.xml"/>
    </input>

    <output>
        <output-file value="C:\Users\Alexey\GDrive\projects\RL_TLS\Networks\derech_akko_haifa.net.xml"/>
    </output>

    <processing>
        <geometry.max-grade.fix value="false"/>
        <offset.disable-normalization value="true"/>
        <lefthand value="false"/>
    </processing>

    <junctions>
        <no-internal-links value="false"/>
        <no-turnarounds value="true"/>
        <junctions.corner-detail value="5"/>
        <junctions.limit-turn-speed value="5.5"/>
        <rectangular-lane-cut value="false"/>
    </junctions>

    <pedestrian>
        <walkingareas value="false"/>
    </pedestrian>

</configuration>
-->

<net version="1.1" junctionCornerDetail="5" limitTurnSpeed="5.50" xmlns:xsi="http://www.w3.org/2001/XMLSchema-instance" xsi:noNamespaceSchemaLocation="http://sumo.dlr.de/xsd/net_file.xsd">

    <location netOffset="0.00,0.00" convBoundary="-2573.94,-200.00,150.00,275.76" origBoundary="-10000000000.00,-10000000000.00,10000000000.00,10000000000.00" projParameter="!"/>

    <edge id=":cluster_cluster_gneJ120_gneJ123_cluster_gneJ161_gneJ162_gneJ187_cluster_gneJ186_gneJ191_0" function="internal">
        <lane id=":cluster_cluster_gneJ120_gneJ123_cluster_gneJ161_gneJ162_gneJ187_cluster_gneJ186_gneJ191_0_0" index="0" disallow="pedestrian" speed="13.89" length="23.22" shape="-402.16,73.10 -408.99,72.60 -413.62,71.49 -418.24,70.39 -425.08,69.90"/>
        <lane id=":cluster_cluster_gneJ120_gneJ123_cluster_gneJ161_gneJ162_gneJ187_cluster_gneJ186_gneJ191_0_1" index="1" disallow="pedestrian" speed="13.89" length="23.22" shape="-402.14,69.90 -408.99,69.40 -413.61,68.29 -418.24,67.19 -425.08,66.70"/>
    </edge>
    <edge id=":cluster_cluster_gneJ120_gneJ123_cluster_gneJ161_gneJ162_gneJ187_cluster_gneJ186_gneJ191_2" function="internal">
        <lane id=":cluster_cluster_gneJ120_gneJ123_cluster_gneJ161_gneJ162_gneJ187_cluster_gneJ186_gneJ191_2_0" index="0" disallow="pedestrian" speed="12.19" length="17.18" shape="-402.13,66.70 -409.51,65.08 -414.73,60.24 -415.62,57.90"/>
    </edge>
    <edge id=":cluster_cluster_gneJ120_gneJ123_cluster_gneJ161_gneJ162_gneJ187_cluster_gneJ186_gneJ191_3" function="internal">
        <lane id=":cluster_cluster_gneJ120_gneJ123_cluster_gneJ161_gneJ162_gneJ187_cluster_gneJ186_gneJ191_3_0" index="0" allow="custom1" speed="13.89" length="22.98" shape="-402.12,63.50 -425.09,63.50"/>
    </edge>
    <edge id=":cluster_cluster_gneJ120_gneJ123_cluster_gneJ161_gneJ162_gneJ187_cluster_gneJ186_gneJ191_11" function="internal">
        <lane id=":cluster_cluster_gneJ120_gneJ123_cluster_gneJ161_gneJ162_gneJ187_cluster_gneJ186_gneJ191_11_0" index="0" disallow="pedestrian" speed="12.19" length="17.48" shape="-415.62,57.90 -417.80,52.16 -418.70,40.85"/>
    </edge>
    <edge id=":cluster_cluster_gneJ120_gneJ123_cluster_gneJ161_gneJ162_gneJ187_cluster_gneJ186_gneJ191_4" function="internal">
        <lane id=":cluster_cluster_gneJ120_gneJ123_cluster_gneJ161_gneJ162_gneJ187_cluster_gneJ186_gneJ191_4_0" index="0" disallow="pedestrian" speed="12.75" length="37.22" shape="-408.30,40.99 -409.48,53.63 -412.67,62.65 -417.87,68.08 -425.08,69.90"/>
    </edge>
    <edge id=":cluster_cluster_gneJ120_gneJ123_cluster_gneJ161_gneJ162_gneJ187_cluster_gneJ186_gneJ191_5" function="internal">
        <lane id=":cluster_cluster_gneJ120_gneJ123_cluster_gneJ161_gneJ162_gneJ187_cluster_gneJ186_gneJ191_5_0" index="0" disallow="pedestrian" speed="11.88" length="32.20" shape="-411.50,40.95 -412.46,52.20 -415.05,60.25 -419.26,65.08 -425.08,66.70"/>
    </edge>
    <edge id=":cluster_cluster_gneJ120_gneJ123_cluster_gneJ161_gneJ162_gneJ187_cluster_gneJ186_gneJ191_6" function="internal">
        <lane id=":cluster_cluster_gneJ120_gneJ123_cluster_gneJ161_gneJ162_gneJ187_cluster_gneJ186_gneJ191_6_0" index="0" allow="pedestrian" speed="5.21" length="5.73" width="2.00" shape="-425.14,44.10 -423.47,43.89 -422.28,43.27 -421.56,42.25 -421.30,40.82"/>
    </edge>
    <edge id=":cluster_cluster_gneJ120_gneJ123_cluster_gneJ161_gneJ162_gneJ187_cluster_gneJ186_gneJ191_7" function="internal">
        <lane id=":cluster_cluster_gneJ120_gneJ123_cluster_gneJ161_gneJ162_gneJ187_cluster_gneJ186_gneJ191_7_0" index="0" disallow="pedestrian" speed="6.81" length="5.57" shape="-425.13,46.70 -422.35,46.33 -420.35,45.23 -420.08,44.83"/>
    </edge>
    <edge id=":cluster_cluster_gneJ120_gneJ123_cluster_gneJ161_gneJ162_gneJ187_cluster_gneJ186_gneJ191_8" function="internal">
        <lane id=":cluster_cluster_gneJ120_gneJ123_cluster_gneJ161_gneJ162_gneJ187_cluster_gneJ186_gneJ191_8_0" index="0" disallow="pedestrian" speed="13.89" length="23.05" shape="-425.12,49.90 -402.06,49.90"/>
        <lane id=":cluster_cluster_gneJ120_gneJ123_cluster_gneJ161_gneJ162_gneJ187_cluster_gneJ186_gneJ191_8_1" index="1" disallow="pedestrian" speed="13.89" length="23.05" shape="-425.12,53.10 -402.07,53.10"/>
        <lane id=":cluster_cluster_gneJ120_gneJ123_cluster_gneJ161_gneJ162_gneJ187_cluster_gneJ186_gneJ191_8_2" index="2" allow="custom1" speed="13.89" length="23.05" shape="-425.11,56.30 -402.08,56.30"/>
    </edge>
    <edge id=":cluster_cluster_gneJ120_gneJ123_cluster_gneJ161_gneJ162_gneJ187_cluster_gneJ186_gneJ191_12" function="internal">
        <lane id=":cluster_cluster_gneJ120_gneJ123_cluster_gneJ161_gneJ162_gneJ187_cluster_gneJ186_gneJ191_12_0" index="0" disallow="pedestrian" speed="6.81" length="4.31" shape="-420.08,44.83 -419.13,43.40 -418.70,40.85"/>
    </edge>
    <edge id=":cluster_cluster_gneJ120_gneJ123_cluster_gneJ161_gneJ162_gneJ187_cluster_gneJ186_gneJ191_c0" function="crossing" crossingEdges="gneE19.239">
        <lane id=":cluster_cluster_gneJ120_gneJ123_cluster_gneJ161_gneJ162_gneJ187_cluster_gneJ186_gneJ191_c0_0" index="0" allow="pedestrian" speed="1.00" length="12.80" width="4.00" shape="-404.12,61.90 -404.16,74.70"/>
    </edge>
    <edge id=":cluster_cluster_gneJ120_gneJ123_cluster_gneJ161_gneJ162_gneJ187_cluster_gneJ186_gneJ191_c1" function="crossing" crossingEdges="gneE18">
        <lane id=":cluster_cluster_gneJ120_gneJ123_cluster_gneJ161_gneJ162_gneJ187_cluster_gneJ186_gneJ191_c1_0" index="0" allow="pedestrian" speed="1.00" length="9.60" width="4.00" shape="-404.05,48.29 -404.09,57.89"/>
    </edge>
    <edge id=":cluster_cluster_gneJ120_gneJ123_cluster_gneJ161_gneJ162_gneJ187_cluster_gneJ186_gneJ191_c2" function="crossing" crossingEdges="gneE25.88">
        <lane id=":cluster_cluster_gneJ120_gneJ123_cluster_gneJ161_gneJ162_gneJ187_cluster_gneJ186_gneJ191_c2_0" index="0" allow="pedestrian" speed="1.00" length="6.40" width="4.00" shape="-413.12,42.93 -406.72,43.01"/>
    </edge>
    <edge id=":cluster_cluster_gneJ120_gneJ123_cluster_gneJ161_gneJ162_gneJ187_cluster_gneJ186_gneJ191_c3" function="crossing" crossingEdges="gneE32">
        <lane id=":cluster_cluster_gneJ120_gneJ123_cluster_gneJ161_gneJ162_gneJ187_cluster_gneJ186_gneJ191_c3_0" index="0" allow="pedestrian" speed="1.00" length="3.20" width="4.00" shape="-420.33,42.83 -417.13,42.87"/>
    </edge>
    <edge id=":cluster_cluster_gneJ120_gneJ123_cluster_gneJ161_gneJ162_gneJ187_cluster_gneJ186_gneJ191_c4" function="crossing" crossingEdges="gneE31.81">
        <lane id=":cluster_cluster_gneJ120_gneJ123_cluster_gneJ161_gneJ162_gneJ187_cluster_gneJ186_gneJ191_c4_0" index="0" allow="pedestrian" speed="1.00" length="12.80" width="4.00" shape="-423.10,57.90 -423.13,45.10"/>
    </edge>
    <edge id=":cluster_cluster_gneJ120_gneJ123_cluster_gneJ161_gneJ162_gneJ187_cluster_gneJ186_gneJ191_c5" function="crossing" crossingEdges="gneE33">
        <lane id=":cluster_cluster_gneJ120_gneJ123_cluster_gneJ161_gneJ162_gneJ187_cluster_gneJ186_gneJ191_c5_0" index="0" allow="pedestrian" speed="1.00" length="9.60" width="4.00" shape="-423.07,71.50 -423.10,61.90"/>
    </edge>
    <edge id=":cluster_cluster_gneJ120_gneJ123_cluster_gneJ161_gneJ162_gneJ187_cluster_gneJ186_gneJ191_w0" function="walkingarea">
        <lane id=":cluster_cluster_gneJ120_gneJ123_cluster_gneJ161_gneJ162_gneJ187_cluster_gneJ186_gneJ191_w0_0" index="0" allow="pedestrian" speed="1.00" length="14.85" width="4.00" shape="-425.07,71.50 -425.07,73.50 -402.17,76.70 -402.17,74.70 -407.07,74.46 -410.67,73.86 -413.62,73.09 -416.56,72.32 -420.16,71.73"/>
    </edge>
    <edge id=":cluster_cluster_gneJ120_gneJ123_cluster_gneJ161_gneJ162_gneJ187_cluster_gneJ186_gneJ191_w1" function="walkingarea">
        <lane id=":cluster_cluster_gneJ120_gneJ123_cluster_gneJ161_gneJ162_gneJ187_cluster_gneJ186_gneJ191_w1_0" index="0" allow="pedestrian" speed="1.00" length="14.97" width="4.00" shape="-406.12,61.89 -402.10,61.90 -402.10,59.90 -402.10,59.90 -402.09,57.90 -406.09,57.88"/>
    </edge>
    <edge id=":cluster_cluster_gneJ120_gneJ123_cluster_gneJ161_gneJ162_gneJ187_cluster_gneJ186_gneJ191_w2" function="walkingarea">
        <lane id=":cluster_cluster_gneJ120_gneJ123_cluster_gneJ161_gneJ162_gneJ187_cluster_gneJ186_gneJ191_w2_0" index="0" allow="pedestrian" speed="1.00" length="5.24" width="4.00" shape="-402.05,48.30 -402.04,46.30 -404.70,41.04 -406.70,41.02 -406.60,43.23 -406.22,45.05 -405.58,46.47 -404.67,47.48 -403.49,48.09"/>
    </edge>
    <edge id=":cluster_cluster_gneJ120_gneJ123_cluster_gneJ161_gneJ162_gneJ187_cluster_gneJ186_gneJ191_w3" function="walkingarea">
        <lane id=":cluster_cluster_gneJ120_gneJ123_cluster_gneJ161_gneJ162_gneJ187_cluster_gneJ186_gneJ191_w3_0" index="0" allow="pedestrian" speed="1.00" length="8.66" width="4.00" shape="-413.15,44.93 -413.10,40.93 -415.10,40.90 -415.10,40.90 -417.10,40.87 -417.15,44.87"/>
    </edge>
    <edge id=":cluster_cluster_gneJ120_gneJ123_cluster_gneJ161_gneJ162_gneJ187_cluster_gneJ186_gneJ191_w4" function="walkingarea">
        <lane id=":cluster_cluster_gneJ120_gneJ123_cluster_gneJ161_gneJ162_gneJ187_cluster_gneJ186_gneJ191_w4_0" index="0" allow="pedestrian" speed="1.00" length="3.79" width="4.00" shape="-420.30,40.83 -422.30,40.80 -425.14,43.10 -425.13,45.10 -423.67,44.98 -422.47,44.62 -421.54,44.03 -420.86,43.20 -420.45,42.13"/>
    </edge>
    <edge id=":cluster_cluster_gneJ120_gneJ123_cluster_gneJ161_gneJ162_gneJ187_cluster_gneJ186_gneJ191_w5" function="walkingarea">
        <lane id=":cluster_cluster_gneJ120_gneJ123_cluster_gneJ161_gneJ162_gneJ187_cluster_gneJ186_gneJ191_w5_0" index="0" allow="pedestrian" speed="1.00" length="14.96" width="4.00" shape="-421.10,57.89 -425.10,57.90 -425.10,59.90 -425.10,59.90 -425.10,61.90 -421.10,61.89"/>
    </edge>
    <edge id=":cluster_cluster_gneJ207_gneJ208_gneJ219_gneJ222_0" function="internal">
        <lane id=":cluster_cluster_gneJ207_gneJ208_gneJ219_gneJ222_0_0" index="0" disallow="pedestrian" speed="13.89" length="27.27" shape="-799.62,73.20 -826.89,73.20"/>
        <lane id=":cluster_cluster_gneJ207_gneJ208_gneJ219_gneJ222_0_1" index="1" disallow="pedestrian" speed="13.89" length="27.27" shape="-799.62,70.00 -826.89,70.00"/>
        <lane id=":cluster_cluster_gneJ207_gneJ208_gneJ219_gneJ222_0_2" index="2" disallow="pedestrian" speed="13.89" length="27.27" shape="-799.62,66.80 -826.89,66.80"/>
        <lane id=":cluster_cluster_gneJ207_gneJ208_gneJ219_gneJ222_0_3" index="3" allow="custom1" speed="13.89" length="27.27" shape="-799.62,63.60 -826.89,63.60"/>
    </edge>
    <edge id=":cluster_cluster_gneJ207_gneJ208_gneJ219_gneJ222_4" function="internal">
        <lane id=":cluster_cluster_gneJ207_gneJ208_gneJ219_gneJ222_4_0" index="0" disallow="pedestrian" speed="13.89" length="27.52" shape="-826.89,50.00 -818.77,49.50 -813.26,48.40 -807.74,47.30 -799.62,46.80"/>
        <lane id=":cluster_cluster_gneJ207_gneJ208_gneJ219_gneJ222_4_1" index="1" disallow="pedestrian" speed="13.89" length="27.52" shape="-826.89,53.20 -818.77,52.70 -813.26,51.60 -807.74,50.50 -799.62,50.00"/>
        <lane id=":cluster_cluster_gneJ207_gneJ208_gneJ219_gneJ222_4_2" index="2" disallow="pedestrian" speed="13.89" length="27.52" shape="-826.89,56.40 -818.77,55.90 -813.26,54.80 -807.74,53.70 -799.62,53.20"/>
    </edge>
    <edge id=":cluster_cluster_gneJ207_gneJ208_gneJ219_gneJ222_7" function="internal">
        <lane id=":cluster_cluster_gneJ207_gneJ208_gneJ219_gneJ222_7_0" index="0" disallow="pedestrian" speed="7.95" length="10.02" shape="-816.31,79.84 -816.96,76.94 -818.94,74.86 -822.25,73.62 -822.89,73.56"/>
    </edge>
    <edge id=":cluster_cluster_gneJ207_gneJ208_gneJ219_gneJ222_8" function="internal">
        <lane id=":cluster_cluster_gneJ207_gneJ208_gneJ219_gneJ222_8_0" index="0" disallow="pedestrian" speed="9.20" length="15.16" shape="-813.11,79.85 -813.95,75.54 -816.53,72.46 -820.84,70.62 -822.89,70.41"/>
    </edge>
    <edge id=":cluster_cluster_gneJ207_gneJ208_gneJ219_gneJ222_9" function="internal">
        <lane id=":cluster_cluster_gneJ207_gneJ208_gneJ219_gneJ222_9_0" index="0" disallow="pedestrian" speed="9.75" length="17.63" shape="-813.11,79.85 -813.95,74.14 -816.53,70.06 -820.84,67.62 -822.89,67.34"/>
    </edge>
    <edge id=":cluster_cluster_gneJ207_gneJ208_gneJ219_gneJ222_10" function="internal">
        <lane id=":cluster_cluster_gneJ207_gneJ208_gneJ219_gneJ222_10_0" index="0" disallow="pedestrian" speed="11.98" length="33.02" shape="-813.11,79.85 -812.22,68.19 -809.68,59.86 -805.48,54.87 -799.62,53.20"/>
    </edge>
    <edge id=":cluster_cluster_gneJ207_gneJ208_gneJ219_gneJ222_11" function="internal">
        <lane id=":cluster_cluster_gneJ207_gneJ208_gneJ219_gneJ222_11_0" index="0" allow="custom1" speed="11.47" length="30.18" shape="-813.11,79.85 -812.23,69.59 -809.69,62.26 -805.48,57.87 -799.62,56.40"/>
    </edge>
    <edge id=":cluster_cluster_gneJ207_gneJ208_gneJ219_gneJ222_12" function="internal">
        <lane id=":cluster_cluster_gneJ207_gneJ208_gneJ219_gneJ222_12_0" index="0" disallow="pedestrian" speed="7.95" length="4.02" shape="-822.89,73.56 -826.89,73.20"/>
    </edge>
    <edge id=":cluster_cluster_gneJ207_gneJ208_gneJ219_gneJ222_13" function="internal">
        <lane id=":cluster_cluster_gneJ207_gneJ208_gneJ219_gneJ222_13_0" index="0" disallow="pedestrian" speed="9.20" length="4.02" shape="-822.89,70.41 -826.89,70.00"/>
    </edge>
    <edge id=":cluster_cluster_gneJ207_gneJ208_gneJ219_gneJ222_14" function="internal">
        <lane id=":cluster_cluster_gneJ207_gneJ208_gneJ219_gneJ222_14_0" index="0" disallow="pedestrian" speed="9.75" length="4.04" shape="-822.89,67.34 -826.89,66.80"/>
    </edge>
    <edge id=":cluster_cluster_gneJ207_gneJ208_gneJ219_gneJ222_c0" function="crossing" crossingEdges="gneE41.23">
        <lane id=":cluster_cluster_gneJ207_gneJ208_gneJ219_gneJ222_c0_0" index="0" allow="pedestrian" speed="1.00" length="9.60" width="4.00" shape="-824.89,58.00 -824.89,48.40"/>
    </edge>
    <edge id=":cluster_cluster_gneJ207_gneJ208_gneJ219_gneJ222_c1" function="crossing" crossingEdges="gneE37">
        <lane id=":cluster_cluster_gneJ207_gneJ208_gneJ219_gneJ222_c1_0" index="0" allow="pedestrian" speed="1.00" length="12.80" width="4.00" shape="-824.89,74.80 -824.89,62.00"/>
    </edge>
    <edge id=":cluster_cluster_gneJ207_gneJ208_gneJ219_gneJ222_c2" function="crossing" crossingEdges="gneE38.44">
        <lane id=":cluster_cluster_gneJ207_gneJ208_gneJ219_gneJ222_c2_0" index="0" allow="pedestrian" speed="1.00" length="6.40" width="4.00" shape="-811.50,77.86 -817.90,77.83"/>
    </edge>
    <edge id=":cluster_cluster_gneJ207_gneJ208_gneJ219_gneJ222_w0" function="walkingarea">
        <lane id=":cluster_cluster_gneJ207_gneJ208_gneJ219_gneJ222_w0_0" index="0" allow="pedestrian" speed="1.00" length="13.14" width="4.00" shape="-811.51,79.86 -809.51,79.87 -799.62,76.80 -799.62,74.80 -803.25,74.94 -806.22,75.36 -808.53,76.07 -810.18,77.05 -811.17,78.31"/>
    </edge>
    <edge id=":cluster_cluster_gneJ207_gneJ208_gneJ219_gneJ222_w1" function="walkingarea">
        <lane id=":cluster_cluster_gneJ207_gneJ208_gneJ219_gneJ222_w1_0" index="0" allow="pedestrian" speed="1.00" length="18.44" width="4.00" shape="-799.62,45.20 -799.62,43.20 -826.89,46.40 -826.89,48.40 -821.06,48.16 -816.77,47.57 -813.26,46.80 -809.74,46.03 -805.45,45.44"/>
    </edge>
    <edge id=":cluster_cluster_gneJ207_gneJ208_gneJ219_gneJ222_w2" function="walkingarea">
        <lane id=":cluster_cluster_gneJ207_gneJ208_gneJ219_gneJ222_w2_0" index="0" allow="pedestrian" speed="1.00" length="14.96" width="4.00" shape="-822.89,58.00 -826.89,58.00 -826.89,60.00 -826.89,60.00 -826.89,62.00 -822.89,62.00"/>
    </edge>
    <edge id=":cluster_cluster_gneJ207_gneJ208_gneJ219_gneJ222_w3" function="walkingarea">
        <lane id=":cluster_cluster_gneJ207_gneJ208_gneJ219_gneJ222_w3_0" index="0" allow="pedestrian" speed="1.00" length="6.34" width="4.00" shape="-826.89,74.80 -826.89,76.80 -819.91,79.82 -817.91,79.83 -818.15,78.30 -818.90,77.04 -820.14,76.06 -821.89,75.36 -824.14,74.94"/>
    </edge>
    <edge id=":cluster_cluster_gneJ445_gneJ459_gneJ465_gneJ472_w0" function="walkingarea">
        <lane id=":cluster_cluster_gneJ445_gneJ459_gneJ465_gneJ472_w0_0" index="0" allow="pedestrian" speed="1.00" length="21.20" width="2.00" shape="-2573.96,54.15 -2573.96,52.15 -2573.93,75.35 -2573.93,73.35"/>
    </edge>
    <edge id=":cluster_cluster_gneJ82_gneJ83_gneJ116_0" function="internal">
        <lane id=":cluster_cluster_gneJ82_gneJ83_gneJ116_0_0" index="0" disallow="pedestrian" speed="13.89" length="8.67" shape="44.20,20.77 44.36,18.21 44.70,16.47 45.04,14.73 45.20,12.17"/>
        <lane id=":cluster_cluster_gneJ82_gneJ83_gneJ116_0_1" index="1" disallow="pedestrian" speed="13.89" length="8.67" shape="47.40,20.77 47.56,18.21 47.90,16.47 48.24,14.73 48.40,12.17"/>
    </edge>
    <edge id=":cluster_cluster_gneJ82_gneJ83_gneJ116_2" function="internal">
        <lane id=":cluster_cluster_gneJ82_gneJ83_gneJ116_2_0" index="0" disallow="pedestrian" speed="10.83" length="8.40" shape="38.41,19.45 40.04,17.54 41.15,16.14 41.79,14.57 42.00,12.17"/>
    </edge>
    <edge id=":cluster_cluster_gneJ82_gneJ83_gneJ116_w1" function="walkingarea">
        <lane id=":cluster_cluster_gneJ82_gneJ83_gneJ116_w1_0" index="0" allow="pedestrian" speed="1.00" length="6.42" width="2.00" shape="40.40,12.17 38.40,12.17 35.59,17.21 37.16,18.45 38.16,17.27 38.98,16.38 39.60,15.60 40.05,14.76 40.31,13.67"/>
    </edge>
    <edge id=":cluster_gneJ106_gneJ129_0" function="internal">
        <lane id=":cluster_gneJ106_gneJ129_0_0" index="0" disallow="pedestrian" speed="13.89" length="26.39" shape="-96.06,43.42 -89.66,44.59 -84.23,45.68 -78.19,46.49 -69.94,46.80"/>
    </edge>
    <edge id=":cluster_gneJ106_gneJ129_1" function="internal">
        <lane id=":cluster_gneJ106_gneJ129_1_0" index="0" disallow="pedestrian" speed="13.89" length="25.06" shape="-95.00,50.00 -69.94,50.00"/>
        <lane id=":cluster_gneJ106_gneJ129_1_1" index="1" disallow="pedestrian" speed="13.89" length="25.06" shape="-95.00,53.20 -69.94,53.20"/>
        <lane id=":cluster_gneJ106_gneJ129_1_2" index="2" allow="custom1" speed="13.89" length="25.06" shape="-95.00,56.40 -69.94,56.40"/>
        <lane id=":cluster_gneJ106_gneJ129_1_3" index="3" disallow="all" speed="13.89" length="25.06" width="2.00" shape="-95.00,59.00 -69.94,59.00"/>
    </edge>
    <edge id=":cluster_gneJ106_gneJ129_w0" function="walkingarea">
        <lane id=":cluster_gneJ106_gneJ129_w0_0" index="0" allow="pedestrian" speed="1.00" length="25.93" width="2.00" shape="-69.94,45.20 -69.94,43.20 -95.50,39.86 -95.81,41.84 -90.32,42.78 -86.27,43.60 -82.93,44.27 -79.58,44.77 -75.49,45.09"/>
    </edge>
    <edge id=":cluster_gneJ108_gneJ109_gneJ110_0" function="internal">
        <lane id=":cluster_gneJ108_gneJ109_gneJ110_0_0" index="0" disallow="pedestrian" speed="13.89" length="22.83" shape="61.40,74.40 38.60,73.20"/>
        <lane id=":cluster_gneJ108_gneJ109_gneJ110_0_1" index="1" disallow="pedestrian" speed="13.89" length="22.83" shape="61.40,71.20 38.60,70.00"/>
    </edge>
    <edge id=":cluster_gneJ108_gneJ109_gneJ110_2" function="internal">
        <lane id=":cluster_gneJ108_gneJ109_gneJ110_2_0" index="0" disallow="pedestrian" speed="11.97" length="18.49" shape="61.40,68.00 53.88,66.53 48.50,62.10 46.95,58.56"/>
    </edge>
    <edge id=":cluster_gneJ108_gneJ109_gneJ110_3" function="internal">
        <lane id=":cluster_gneJ108_gneJ109_gneJ110_3_0" index="0" disallow="pedestrian" speed="11.03" length="12.70" shape="61.40,64.80 55.27,63.52 50.90,59.70 50.66,59.12"/>
    </edge>
    <edge id=":cluster_gneJ108_gneJ109_gneJ110_4" function="internal">
        <lane id=":cluster_gneJ108_gneJ109_gneJ110_4_0" index="0" allow="custom1" speed="13.89" length="22.92" shape="61.40,61.60 54.62,61.91 50.00,62.60 45.38,63.29 38.60,63.60"/>
    </edge>
    <edge id=":cluster_gneJ108_gneJ109_gneJ110_11" function="internal">
        <lane id=":cluster_gneJ108_gneJ109_gneJ110_11_0" index="0" disallow="pedestrian" speed="11.97" length="14.57" shape="46.95,58.56 45.28,54.73 44.20,44.40"/>
    </edge>
    <edge id=":cluster_gneJ108_gneJ109_gneJ110_12" function="internal">
        <lane id=":cluster_gneJ108_gneJ109_gneJ110_12_0" index="0" disallow="pedestrian" speed="11.03" length="15.23" shape="50.66,59.12 48.27,53.33 47.40,44.40"/>
    </edge>
    <edge id=":cluster_gneJ108_gneJ109_gneJ110_5" function="internal">
        <lane id=":cluster_gneJ108_gneJ109_gneJ110_5_0" index="0" disallow="pedestrian" speed="12.74" length="37.56" shape="55.80,44.40 54.73,57.00 51.50,66.00 46.13,71.40 38.60,73.20"/>
    </edge>
    <edge id=":cluster_gneJ108_gneJ109_gneJ110_6" function="internal">
        <lane id=":cluster_gneJ108_gneJ109_gneJ110_6_0" index="0" disallow="pedestrian" speed="11.36" length="29.66" shape="52.60,44.40 51.73,54.20 49.10,61.20 44.73,65.40 38.60,66.80"/>
    </edge>
    <edge id=":cluster_gneJ108_gneJ109_gneJ110_7" function="internal">
        <lane id=":cluster_gneJ108_gneJ109_gneJ110_7_0" index="0" allow="custom1" speed="10.84" length="26.90" shape="52.60,44.40 51.73,52.80 49.10,58.80 44.73,62.40 38.60,63.60"/>
    </edge>
    <edge id=":cluster_gneJ108_gneJ109_gneJ110_8" function="internal">
        <lane id=":cluster_gneJ108_gneJ109_gneJ110_8_0" index="0" disallow="pedestrian" speed="13.89" length="22.92" shape="38.60,50.00 45.38,50.31 50.00,51.00 54.62,51.69 61.40,52.00"/>
        <lane id=":cluster_gneJ108_gneJ109_gneJ110_8_1" index="1" disallow="pedestrian" speed="13.89" length="22.92" shape="38.60,53.20 45.38,53.51 50.00,54.20 54.62,54.89 61.40,55.20"/>
        <lane id=":cluster_gneJ108_gneJ109_gneJ110_8_2" index="2" allow="custom1" speed="13.89" length="22.92" shape="38.60,56.40 45.38,56.71 50.00,57.40 54.62,58.09 61.40,58.40"/>
    </edge>
    <edge id=":cluster_gneJ108_gneJ109_gneJ110_c0" function="crossing" crossingEdges="gneE2.26.23">
        <lane id=":cluster_gneJ108_gneJ109_gneJ110_c0_0" index="0" allow="pedestrian" speed="1.00" length="6.40" width="4.00" shape="51.00,46.40 57.40,46.40"/>
    </edge>
    <edge id=":cluster_gneJ108_gneJ109_gneJ110_c1" function="crossing" crossingEdges="gneE4">
        <lane id=":cluster_gneJ108_gneJ109_gneJ110_c1_0" index="0" allow="pedestrian" speed="1.00" length="6.40" width="4.00" shape="42.60,46.40 49.00,46.40"/>
    </edge>
    <edge id=":cluster_gneJ108_gneJ109_gneJ110_c2" function="crossing" crossingEdges="gneE12.100">
        <lane id=":cluster_gneJ108_gneJ109_gneJ110_c2_0" index="0" allow="pedestrian" speed="1.00" length="9.60" width="4.00" shape="40.60,58.00 40.60,48.40"/>
    </edge>
    <edge id=":cluster_gneJ108_gneJ109_gneJ110_c3" function="crossing" crossingEdges="gneE7">
        <lane id=":cluster_gneJ108_gneJ109_gneJ110_c3_0" index="0" allow="pedestrian" speed="1.00" length="12.80" width="4.00" shape="40.60,74.80 40.60,62.00"/>
    </edge>
    <edge id=":cluster_gneJ108_gneJ109_gneJ110_w0" function="walkingarea">
        <lane id=":cluster_gneJ108_gneJ109_gneJ110_w0_0" index="0" allow="pedestrian" speed="1.00" length="15.29" width="4.00" shape="38.60,74.80 38.60,76.80 61.40,76.00 61.40,72.80 61.40,72.80 61.40,69.60 61.40,69.60 61.40,66.40 61.40,66.40 61.40,63.20 56.16,64.06 52.65,66.21 50.00,69.00 47.35,71.79 43.84,73.94"/>
    </edge>
    <edge id=":cluster_gneJ108_gneJ109_gneJ110_w1" function="walkingarea">
        <lane id=":cluster_gneJ108_gneJ109_gneJ110_w1_0" index="0" allow="pedestrian" speed="1.00" length="4.36" width="4.00" shape="61.40,50.40 61.40,48.40 59.40,44.40 57.40,44.40 57.51,46.23 57.84,47.73 58.40,48.90 59.18,49.73 60.18,50.23"/>
    </edge>
    <edge id=":cluster_gneJ108_gneJ109_gneJ110_w2" function="walkingarea">
        <lane id=":cluster_gneJ108_gneJ109_gneJ110_w2_0" index="0" allow="pedestrian" speed="1.00" length="8.89" width="4.00" shape="51.00,48.40 51.00,44.40 50.00,44.40 50.00,44.40 49.00,44.40 49.00,48.40"/>
    </edge>
    <edge id=":cluster_gneJ108_gneJ109_gneJ110_w3" function="walkingarea">
        <lane id=":cluster_gneJ108_gneJ109_gneJ110_w3_0" index="0" allow="pedestrian" speed="1.00" length="3.30" width="4.00" shape="42.60,44.40 40.60,44.40 38.60,46.40 38.60,48.40 39.82,48.29 40.82,47.96 41.60,47.40 42.16,46.62 42.49,45.62"/>
    </edge>
    <edge id=":cluster_gneJ108_gneJ109_gneJ110_w4" function="walkingarea">
        <lane id=":cluster_gneJ108_gneJ109_gneJ110_w4_0" index="0" allow="pedestrian" speed="1.00" length="14.96" width="4.00" shape="42.60,58.00 38.60,58.00 38.60,60.00 38.60,60.00 38.60,62.00 42.60,62.00"/>
    </edge>
    <edge id=":cluster_gneJ112_gneJ115_0" function="internal">
        <lane id=":cluster_gneJ112_gneJ115_0_0" index="0" disallow="pedestrian" speed="13.89" length="15.30" shape="-6.59,46.80 -2.10,46.58 0.92,45.88 3.84,44.67 8.02,42.89"/>
    </edge>
    <edge id=":cluster_gneJ112_gneJ115_1" function="internal">
        <lane id=":cluster_gneJ112_gneJ115_1_0" index="0" disallow="pedestrian" speed="13.89" length="14.59" shape="-6.59,50.00 8.00,50.00"/>
        <lane id=":cluster_gneJ112_gneJ115_1_1" index="1" disallow="pedestrian" speed="13.89" length="14.59" shape="-6.59,53.20 8.00,53.20"/>
        <lane id=":cluster_gneJ112_gneJ115_1_2" index="2" allow="custom1" speed="13.89" length="14.59" shape="-6.59,56.40 8.00,56.40"/>
        <lane id=":cluster_gneJ112_gneJ115_1_3" index="3" disallow="all" speed="13.89" length="14.59" width="2.00" shape="-6.59,59.00 8.00,59.00"/>
    </edge>
    <edge id=":cluster_gneJ112_gneJ115_w1" function="walkingarea">
        <lane id=":cluster_gneJ112_gneJ115_w1_0" index="0" allow="pedestrian" speed="1.00" length="14.16" width="2.00" shape="7.44,41.40 6.70,39.54 -6.59,43.20 -6.59,45.20 -3.49,45.10 -1.22,44.81 0.62,44.30 2.41,43.57 4.56,42.61"/>
    </edge>
    <edge id=":cluster_gneJ121_gneJ122_gneJ125_gneJ133_gneJ15_gneJ46_0" function="internal">
        <lane id=":cluster_gneJ121_gneJ122_gneJ125_gneJ133_gneJ15_gneJ46_0_0" index="0" disallow="pedestrian" speed="13.89" length="20.49" shape="-120.98,73.20 -126.89,72.39 -130.78,70.60 -134.67,68.81 -140.58,68.00"/>
        <lane id=":cluster_gneJ121_gneJ122_gneJ125_gneJ133_gneJ15_gneJ46_0_1" index="1" disallow="pedestrian" speed="13.89" length="20.49" shape="-120.98,70.00 -126.89,69.19 -130.78,67.40 -134.67,65.61 -140.58,64.80"/>
    </edge>
    <edge id=":cluster_gneJ121_gneJ122_gneJ125_gneJ133_gneJ15_gneJ46_2" function="internal">
        <lane id=":cluster_gneJ121_gneJ122_gneJ125_gneJ133_gneJ15_gneJ46_2_0" index="0" disallow="pedestrian" speed="11.36" length="14.41" shape="-120.98,66.80 -127.10,65.40 -131.48,61.20 -132.20,59.27"/>
    </edge>
    <edge id=":cluster_gneJ121_gneJ122_gneJ125_gneJ133_gneJ15_gneJ46_3" function="internal">
        <lane id=":cluster_gneJ121_gneJ122_gneJ125_gneJ133_gneJ15_gneJ46_3_0" index="0" allow="custom1" speed="13.89" length="19.73" shape="-120.98,63.60 -126.81,63.29 -130.78,62.60 -134.75,61.91 -140.58,61.60"/>
    </edge>
    <edge id=":cluster_gneJ121_gneJ122_gneJ125_gneJ133_gneJ15_gneJ46_11" function="internal">
        <lane id=":cluster_gneJ121_gneJ122_gneJ125_gneJ133_gneJ15_gneJ46_11_0" index="0" disallow="pedestrian" speed="11.36" length="15.25" shape="-132.20,59.27 -134.10,54.20 -134.98,44.40"/>
    </edge>
    <edge id=":cluster_gneJ121_gneJ122_gneJ125_gneJ133_gneJ15_gneJ46_4" function="internal">
        <lane id=":cluster_gneJ121_gneJ122_gneJ125_gneJ133_gneJ15_gneJ46_4_0" index="0" disallow="pedestrian" speed="6.51" length="9.03" shape="-126.58,44.40 -126.23,46.85 -125.18,48.60 -123.43,49.65 -120.98,50.00"/>
    </edge>
    <edge id=":cluster_gneJ121_gneJ122_gneJ125_gneJ133_gneJ15_gneJ46_5" function="internal">
        <lane id=":cluster_gneJ121_gneJ122_gneJ125_gneJ133_gneJ15_gneJ46_5_0" index="0" disallow="pedestrian" speed="12.06" length="33.55" shape="-126.58,44.40 -127.46,56.13 -130.08,64.50 -134.45,69.53 -140.58,71.20"/>
    </edge>
    <edge id=":cluster_gneJ121_gneJ122_gneJ125_gneJ133_gneJ15_gneJ46_6" function="internal">
        <lane id=":cluster_gneJ121_gneJ122_gneJ125_gneJ133_gneJ15_gneJ46_6_0" index="0" disallow="pedestrian" speed="11.55" length="30.71" shape="-126.58,44.40 -127.46,54.73 -130.08,62.10 -134.45,66.53 -140.58,68.00"/>
    </edge>
    <edge id=":cluster_gneJ121_gneJ122_gneJ125_gneJ133_gneJ15_gneJ46_7" function="internal">
        <lane id=":cluster_gneJ121_gneJ122_gneJ125_gneJ133_gneJ15_gneJ46_7_0" index="0" disallow="pedestrian" speed="10.59" length="25.63" shape="-129.78,44.40 -130.46,53.32 -132.48,59.70 -135.85,63.52 -140.58,64.80"/>
    </edge>
    <edge id=":cluster_gneJ121_gneJ122_gneJ125_gneJ133_gneJ15_gneJ46_8" function="internal">
        <lane id=":cluster_gneJ121_gneJ122_gneJ125_gneJ133_gneJ15_gneJ46_8_0" index="0" disallow="pedestrian" speed="13.89" length="19.73" shape="-140.58,52.00 -134.75,51.69 -130.78,51.00 -126.81,50.31 -120.98,50.00"/>