<?xml version="1.0" encoding="UTF-8"?>

<!-- generated on 05/26/20 05:22:51 by Eclipse SUMO netedit Version 1.6.0
<configuration xmlns:xsi="http://www.w3.org/2001/XMLSchema-instance" xsi:noNamespaceSchemaLocation="http://sumo.dlr.de/xsd/netconvertConfiguration.xsd">

    <input>
        <sumo-net-file value="C:\Users\Alexey\GDrive\projects\DeepRLight\Networks\Derech_akko\Network.net.xml"/>
    </input>

    <output>
        <output-file value="C:\Users\Alexey\GDrive\projects\DeepRLight\Networks\Derech_akko\Network.net.xml"/>
    </output>

    <processing>
        <geometry.min-radius.fix.railways value="false"/>
        <geometry.max-grade.fix value="false"/>
        <offset.disable-normalization value="true"/>
        <lefthand value="false"/>
    </processing>

    <junctions>
        <no-internal-links value="false"/>
        <no-turnarounds value="true"/>
        <junctions.corner-detail value="5"/>
        <junctions.limit-turn-speed value="5.5"/>
        <rectangular-lane-cut value="false"/>
    </junctions>

    <pedestrian>
        <walkingareas value="false"/>
    </pedestrian>

    <report>
        <aggregate-warnings value="5"/>
    </report>

</configuration>
-->

<net version="1.6" junctionCornerDetail="5" limitTurnSpeed="5.50" xmlns:xsi="http://www.w3.org/2001/XMLSchema-instance" xsi:noNamespaceSchemaLocation="http://sumo.dlr.de/xsd/net_file.xsd">

    <location netOffset="0.00,0.00" convBoundary="0.00,-230.00,2500.00,250.59" origBoundary="-10000000000.00,-10000000000.00,10000000000.00,10000000000.00" projParameter="!"/>

    <edge id=":AhiEilat_0" function="internal">
        <lane id=":AhiEilat_0_0" index="0" disallow="pedestrian" speed="13.89" length="51.03" shape="612.00,50.00 610.20,-1.00"/>
        <lane id=":AhiEilat_0_1" index="1" disallow="pedestrian" speed="13.89" length="51.03" shape="615.20,50.00 613.40,-1.00"/>
    </edge>
    <edge id=":AhiEilat_2" function="internal">
        <lane id=":AhiEilat_2_0" index="0" disallow="pedestrian" speed="13.89" length="45.96" shape="615.20,50.00 616.75,33.90 621.40,22.40 629.15,15.50 636.00,14.05"/>
    </edge>
    <edge id=":AhiEilat_3" function="internal">
        <lane id=":AhiEilat_3_0" index="0" disallow="pedestrian" speed="13.89" length="40.83" shape="618.40,50.00 619.75,35.30 623.80,24.80 630.55,18.50 636.00,17.29"/>
    </edge>
    <edge id=":AhiEilat_19" function="internal">
        <lane id=":AhiEilat_19_0" index="0" disallow="pedestrian" speed="13.89" length="4.09" shape="636.00,14.05 640.00,13.20"/>
    </edge>
    <edge id=":AhiEilat_20" function="internal">
        <lane id=":AhiEilat_20_0" index="0" disallow="pedestrian" speed="13.89" length="4.10" shape="636.00,17.29 640.00,16.40"/>
    </edge>
    <edge id=":AhiEilat_4" function="internal">
        <lane id=":AhiEilat_4_0" index="0" disallow="pedestrian" speed="13.89" length="40.13" shape="640.00,42.00 600.00,38.80"/>
        <lane id=":AhiEilat_4_1" index="1" disallow="pedestrian" speed="13.89" length="40.13" shape="640.00,38.80 600.00,35.60"/>
    </edge>
    <edge id=":AhiEilat_6" function="internal">
        <lane id=":AhiEilat_6_0" index="0" disallow="pedestrian" speed="13.89" length="42.32" shape="640.00,35.60 632.54,31.13 623.76,20.63 616.45,8.47 614.69,3.00"/>
    </edge>
    <edge id=":AhiEilat_21" function="internal">
        <lane id=":AhiEilat_21_0" index="0" disallow="pedestrian" speed="13.89" length="4.20" shape="614.69,3.00 613.40,-1.00"/>
    </edge>
    <edge id=":AhiEilat_7" function="internal">
        <lane id=":AhiEilat_7_0" index="0" allow="bus" speed="13.89" length="40.00" shape="640.00,27.60 600.00,27.60"/>
    </edge>
    <edge id=":AhiEilat_8" function="internal">
        <lane id=":AhiEilat_8_0" index="0" disallow="pedestrian" speed="13.89" length="51.02" shape="630.20,-1.00 628.80,50.00"/>
        <lane id=":AhiEilat_8_1" index="1" disallow="pedestrian" speed="13.89" length="51.02" shape="627.00,-1.00 625.60,50.00"/>
    </edge>
    <edge id=":AhiEilat_10" function="internal">
        <lane id=":AhiEilat_10_0" index="0" disallow="pedestrian" speed="13.89" length="51.93" shape="623.80,-1.00 622.31,16.41 617.85,28.85 610.41,36.31 600.00,38.80"/>
    </edge>
    <edge id=":AhiEilat_11" function="internal">
        <lane id=":AhiEilat_11_0" index="0" disallow="pedestrian" speed="13.89" length="46.84" shape="620.60,-1.00 619.31,15.01 615.45,26.45 609.01,33.31 600.00,35.60"/>
    </edge>
    <edge id=":AhiEilat_12" function="internal">
        <lane id=":AhiEilat_12_0" index="0" allow="bus" speed="13.11" length="39.88" shape="620.60,-1.00 619.31,11.51 615.45,20.45 609.01,25.81 600.00,27.60"/>
    </edge>
    <edge id=":AhiEilat_13" function="internal">
        <lane id=":AhiEilat_13_0" index="0" disallow="pedestrian" speed="13.89" length="40.63" shape="600.00,6.80 612.69,7.80 621.97,10.00 630.27,12.20 640.00,13.20"/>
        <lane id=":AhiEilat_13_1" index="1" disallow="pedestrian" speed="13.89" length="40.63" shape="600.00,10.00 612.69,11.00 621.97,13.20 630.27,15.40 640.00,16.40"/>
    </edge>
    <edge id=":AhiEilat_15" function="internal">
        <lane id=":AhiEilat_15_0" index="0" disallow="pedestrian" speed="13.89" length="14.46" shape="600.00,13.20 607.97,17.70 611.52,21.64"/>
    </edge>
    <edge id=":AhiEilat_16" function="internal">
        <lane id=":AhiEilat_16_0" index="0" disallow="pedestrian" speed="13.70" length="12.01" shape="600.00,16.40 607.41,20.40 609.79,23.08"/>
    </edge>
    <edge id=":AhiEilat_22" function="internal">
        <lane id=":AhiEilat_22_0" index="0" disallow="pedestrian" speed="13.89" length="33.59" shape="611.52,21.64 617.48,28.27 625.46,40.50 628.80,50.00"/>
    </edge>
    <edge id=":AhiEilat_23" function="internal">
        <lane id=":AhiEilat_23_0" index="0" disallow="pedestrian" speed="13.70" length="31.63" shape="609.79,23.08 615.83,29.87 622.74,41.00 625.60,50.00"/>
    </edge>
    <edge id=":AhiEilat_17" function="internal">
        <lane id=":AhiEilat_17_0" index="0" allow="bus" speed="10.83" length="22.84" shape="600.00,21.20 604.46,19.81 607.65,15.65 609.56,8.71 609.94,3.00"/>
    </edge>
    <edge id=":AhiEilat_18" function="internal">
        <lane id=":AhiEilat_18_0" index="0" allow="bus" speed="13.89" length="40.00" shape="600.00,24.40 640.00,24.40"/>
    </edge>
    <edge id=":AhiEilat_24" function="internal">
        <lane id=":AhiEilat_24_0" index="0" allow="bus" speed="10.83" length="4.01" shape="609.94,3.00 610.20,-1.00"/>
    </edge>
    <edge id=":AhiEilat_c0" function="crossing" crossingEdges="gneE36.168">
        <lane id=":AhiEilat_c0_0" index="0" allow="pedestrian" speed="1.00" length="9.60" width="4.00" shape="620.00,48.00 610.40,48.00"/>
    </edge>
    <edge id=":AhiEilat_c1" function="crossing" crossingEdges="gneE37">
        <lane id=":AhiEilat_c1_0" index="0" allow="pedestrian" speed="1.00" length="6.40" width="4.00" shape="630.40,48.00 624.00,48.00"/>
    </edge>
    <edge id=":AhiEilat_c2" function="crossing" crossingEdges="gneE38.113">
        <lane id=":AhiEilat_c2_0" index="0" allow="pedestrian" speed="1.00" length="9.60" width="4.00" shape="638.00,34.00 638.00,43.60"/>
    </edge>
    <edge id=":AhiEilat_c3" function="crossing" crossingEdges="gneE48 gneE49">
        <lane id=":AhiEilat_c3_0" index="0" allow="pedestrian" speed="1.00" length="6.40" width="4.00" shape="638.00,22.80 638.00,29.20"/>
    </edge>
    <edge id=":AhiEilat_c4" function="crossing" crossingEdges="gneE39">
        <lane id=":AhiEilat_c4_0" index="0" allow="pedestrian" speed="1.00" length="6.40" width="4.00" shape="638.00,11.60 638.00,18.00"/>
    </edge>
    <edge id=":AhiEilat_c5" function="crossing" crossingEdges="gneE50.90">
        <lane id=":AhiEilat_c5_0" index="0" allow="pedestrian" speed="1.00" length="12.80" width="4.00" shape="619.00,1.00 631.80,1.00"/>
    </edge>
    <edge id=":AhiEilat_c6" function="crossing" crossingEdges="gneE51">
        <lane id=":AhiEilat_c6_0" index="0" allow="pedestrian" speed="1.00" length="6.40" width="4.00" shape="608.60,1.00 615.00,1.00"/>
    </edge>
    <edge id=":AhiEilat_w0" function="walkingarea">
        <lane id=":AhiEilat_w0_0" index="0" allow="pedestrian" speed="1.00" length="7.91" width="4.00" shape="600.00,40.40 600.00,42.40 600.00,42.50 600.00,44.50 606.00,50.00 608.00,50.00 608.40,50.00 610.40,50.00 610.11,47.07 609.24,44.67 607.80,42.80 605.78,41.47 603.18,40.67"/>
    </edge>
    <edge id=":AhiEilat_w1" function="walkingarea">
        <lane id=":AhiEilat_w1_0" index="0" allow="pedestrian" speed="1.00" length="2.95" width="4.00" shape="620.00,46.00 620.00,50.00 622.00,50.00 622.00,50.00 624.00,50.00 624.00,46.00"/>
    </edge>
    <edge id=":AhiEilat_w2" function="walkingarea">
        <lane id=":AhiEilat_w2_0" index="0" allow="pedestrian" speed="1.00" length="6.46" width="4.00" shape="630.40,50.00 632.40,50.00 633.00,50.00 635.00,50.00 640.00,48.00 640.00,46.00 640.00,45.60 640.00,43.60 637.07,43.78 634.67,44.31 632.80,45.20 631.47,46.44 630.67,48.04"/>
    </edge>
    <edge id=":AhiEilat_w3" function="walkingarea">
        <lane id=":AhiEilat_w3_0" index="0" allow="pedestrian" speed="1.00" length="3.26" width="4.00" shape="636.00,34.00 640.00,34.00 640.00,33.50 640.00,31.50 640.00,31.50 640.00,29.50 640.00,29.20 636.00,29.20"/>
    </edge>
    <edge id=":AhiEilat_w4" function="walkingarea">
        <lane id=":AhiEilat_w4_0" index="0" allow="pedestrian" speed="1.00" length="3.26" width="4.00" shape="636.00,22.80 640.00,22.80 640.00,22.50 640.00,20.50 640.00,20.50 640.00,18.50 640.00,18.00 636.00,18.00"/>
    </edge>
    <edge id=":AhiEilat_w5" function="walkingarea">
        <lane id=":AhiEilat_w5_0" index="0" allow="pedestrian" speed="1.00" length="8.52" width="4.00" shape="640.00,11.60 640.00,9.60 640.00,9.50 640.00,7.50 636.00,-1.00 634.00,-1.00 633.80,-1.00 631.80,-1.00 632.03,2.85 632.71,6.00 633.85,8.45 635.44,10.20 637.49,11.25"/>
    </edge>
    <edge id=":AhiEilat_w6" function="walkingarea">
        <lane id=":AhiEilat_w6_0" index="0" allow="pedestrian" speed="1.00" length="2.95" width="4.00" shape="619.00,3.00 619.00,-1.00 617.00,-1.00 617.00,-1.00 615.00,-1.00 615.00,3.00"/>
    </edge>
    <edge id=":AhiEilat_w7" function="walkingarea">
        <lane id=":AhiEilat_w7_0" index="0" allow="pedestrian" speed="1.00" length="5.93" width="4.00" shape="608.60,-1.00 606.60,-1.00 606.50,-1.00 604.50,-1.00 600.00,1.00 600.00,3.00 600.00,3.20 600.00,5.20 602.63,5.03 604.78,4.51 606.45,3.65 607.64,2.44 608.36,0.89"/>
    </edge>
    <edge id=":Mozart_0" function="internal">
        <lane id=":Mozart_0_0" index="0" disallow="pedestrian" speed="13.89" length="41.63" shape="1625.20,47.00 1625.20,5.37"/>
        <lane id=":Mozart_0_1" index="1" disallow="pedestrian" speed="13.89" length="41.63" shape="1628.40,47.00 1628.40,5.37"/>
    </edge>
    <edge id=":Mozart_2" function="internal">
        <lane id=":Mozart_2_0" index="0" disallow="pedestrian" speed="13.79" length="12.70" shape="1628.40,47.00 1629.82,34.38"/>
    </edge>
    <edge id=":Mozart_12" function="internal">
        <lane id=":Mozart_12_0" index="0" disallow="pedestrian" speed="13.79" length="31.53" shape="1629.82,34.38 1629.91,33.61 1634.43,24.05 1641.96,18.31 1652.50,16.40"/>
    </edge>
    <edge id=":Mozart_3" function="internal">
        <lane id=":Mozart_3_0" index="0" disallow="pedestrian" speed="13.89" length="35.00" shape="1652.50,38.80 1617.50,38.80"/>
        <lane id=":Mozart_3_1" index="1" disallow="pedestrian" speed="13.89" length="35.00" shape="1652.50,35.60 1617.50,35.60"/>
    </edge>
    <edge id=":Mozart_5" function="internal">
        <lane id=":Mozart_5_0" index="0" allow="bus" speed="13.89" length="35.00" shape="1652.50,27.60 1617.50,27.60"/>
    </edge>
    <edge id=":Mozart_6" function="internal">
        <lane id=":Mozart_6_0" index="0" disallow="pedestrian" speed="13.89" length="41.63" shape="1644.80,5.37 1644.80,47.00"/>
        <lane id=":Mozart_6_1" index="1" disallow="pedestrian" speed="13.89" length="41.63" shape="1641.60,5.37 1641.60,47.00"/>
    </edge>
    <edge id=":Mozart_8" function="internal">
        <lane id=":Mozart_8_0" index="0" disallow="pedestrian" speed="13.75" length="12.35" shape="1641.60,5.37 1640.20,17.64"/>
    </edge>
    <edge id=":Mozart_13" function="internal">
        <lane id=":Mozart_13_0" index="0" disallow="pedestrian" speed="13.75" length="31.57" shape="1640.20,17.64 1640.09,18.60 1635.57,28.04 1628.04,33.71 1617.50,35.60"/>
    </edge>
    <edge id=":Mozart_9" function="internal">
        <lane id=":Mozart_9_0" index="0" disallow="pedestrian" speed="13.89" length="35.00" shape="1617.50,13.20 1652.50,13.20"/>
        <lane id=":Mozart_9_1" index="1" disallow="pedestrian" speed="13.89" length="35.00" shape="1617.50,16.40 1652.50,16.40"/>
    </edge>
    <edge id=":Mozart_11" function="internal">
        <lane id=":Mozart_11_0" index="0" allow="bus" speed="13.89" length="35.00" shape="1617.50,24.40 1652.50,24.40"/>
    </edge>
    <edge id=":Mozart_c0" function="crossing" crossingEdges="gneE69.164">
        <lane id=":Mozart_c0_0" index="0" allow="pedestrian" speed="1.00" length="6.40" width="4.00" shape="1630.00,45.00 1623.60,45.00"/>
    </edge>
    <edge id=":Mozart_c1" function="crossing" crossingEdges="gneE70">
        <lane id=":Mozart_c1_0" index="0" allow="pedestrian" speed="1.00" length="6.40" width="4.00" shape="1646.40,45.00 1640.00,45.00"/>
    </edge>
    <edge id=":Mozart_c2" function="crossing" crossingEdges="gneE74.304">
        <lane id=":Mozart_c2_0" index="0" allow="pedestrian" speed="1.00" length="6.40" width="4.00" shape="1650.50,34.00 1650.50,40.40"/>
    </edge>
    <edge id=":Mozart_c3" function="crossing" crossingEdges="gneE75 gneE76">
        <lane id=":Mozart_c3_0" index="0" allow="pedestrian" speed="1.00" length="6.40" width="4.00" shape="1650.50,22.80 1650.50,29.20"/>
    </edge>
    <edge id=":Mozart_c4" function="crossing" crossingEdges="gneE73">
        <lane id=":Mozart_c4_0" index="0" allow="pedestrian" speed="1.00" length="6.40" width="4.00" shape="1650.50,11.60 1650.50,18.00"/>
    </edge>
    <edge id=":Mozart_c5" function="crossing" crossingEdges="gneE72.204">
        <lane id=":Mozart_c5_0" index="0" allow="pedestrian" speed="1.00" length="6.40" width="4.00" shape="1640.00,7.37 1646.40,7.37"/>
    </edge>
    <edge id=":Mozart_c6" function="crossing" crossingEdges="gneE71">
        <lane id=":Mozart_c6_0" index="0" allow="pedestrian" speed="1.00" length="6.40" width="4.00" shape="1623.60,7.37 1630.00,7.37"/>
    </edge>
    <edge id=":Mozart_c7" function="crossing" crossingEdges="gneE39.950">
        <lane id=":Mozart_c7_0" index="0" allow="pedestrian" speed="1.00" length="6.40" width="4.00" shape="1619.50,18.00 1619.50,11.60"/>
    </edge>
    <edge id=":Mozart_c8" function="crossing" crossingEdges="gneE49 gneE48">
        <lane id=":Mozart_c8_0" index="0" allow="pedestrian" speed="1.00" length="6.40" width="4.00" shape="1619.50,29.20 1619.50,22.80"/>
    </edge>
    <edge id=":Mozart_c9" function="crossing" crossingEdges="gneE38">
        <lane id=":Mozart_c9_0" index="0" allow="pedestrian" speed="1.00" length="6.40" width="4.00" shape="1619.50,40.40 1619.50,34.00"/>
    </edge>
    <edge id=":Mozart_w0" function="walkingarea">
        <lane id=":Mozart_w0_0" index="0" allow="pedestrian" speed="1.00" length="4.95" width="4.00" shape="1617.50,40.40 1617.50,42.40 1617.50,42.54 1617.50,44.54 1619.50,47.00 1621.50,47.00 1621.60,47.00 1623.60,47.00 1623.43,44.98 1622.92,43.33 1622.08,42.05 1620.89,41.13 1619.36,40.58"/>
    </edge>
    <edge id=":Mozart_w1" function="walkingarea">
        <lane id=":Mozart_w1_0" index="0" allow="pedestrian" speed="1.00" length="6.15" width="5.00" shape="1630.00,43.00 1630.00,47.00 1635.00,47.00 1635.00,47.00 1640.00,47.00 1640.00,43.00"/>
    </edge>
    <edge id=":Mozart_w2" function="walkingarea">
        <lane id=":Mozart_w2_0" index="0" allow="pedestrian" speed="1.00" length="6.87" width="4.00" shape="1646.40,47.00 1648.40,47.00 1648.50,47.00 1650.50,47.00 1652.50,45.00 1652.50,43.00 1652.50,34.00 1652.50,32.00 1652.50,42.40 1652.50,40.40 1650.64,40.58 1649.11,41.13 1647.92,42.05 1647.08,43.33 1646.57,44.98"/>
    </edge>
    <edge id=":Mozart_w3" function="walkingarea">
        <lane id=":Mozart_w3_0" index="0" allow="pedestrian" speed="1.00" length="3.70" width="4.00" shape="1648.50,34.00 1652.50,34.00 1652.50,32.00 1652.50,30.00 1652.50,29.20 1648.50,29.20"/>
    </edge>
    <edge id=":Mozart_w4" function="walkingarea">
        <lane id=":Mozart_w4_0" index="0" allow="pedestrian" speed="1.00" length="3.27" width="4.00" shape="1648.50,22.80 1652.50,22.80 1652.50,22.00 1652.50,20.00 1652.50,20.00 1652.50,18.00 1648.50,18.00"/>
    </edge>
    <edge id=":Mozart_w5" function="walkingarea">
        <lane id=":Mozart_w5_0" index="0" allow="pedestrian" speed="1.00" length="4.80" width="4.00" shape="1652.50,11.60 1652.50,9.60 1652.50,9.50 1652.50,7.50 1650.50,5.37 1648.50,5.37 1648.40,5.37 1646.40,5.37 1646.57,7.27 1647.08,8.83 1647.93,10.04 1649.11,10.91 1650.64,11.43"/>
    </edge>
    <edge id=":Mozart_w6" function="walkingarea">
        <lane id=":Mozart_w6_0" index="0" allow="pedestrian" speed="1.00" length="6.15" width="5.00" shape="1640.00,9.37 1640.00,5.37 1635.00,5.37 1635.00,5.37 1630.00,5.37 1630.00,9.37"/>
    </edge>
    <edge id=":Mozart_w7" function="walkingarea">
        <lane id=":Mozart_w7_0" index="0" allow="pedestrian" speed="1.00" length="4.80" width="4.00" shape="1623.60,5.37 1621.60,5.37 1621.50,5.37 1619.50,5.37 1617.50,7.37 1617.50,9.37 1617.50,9.60 1617.50,11.60 1619.36,11.43 1620.89,10.91 1622.08,10.04 1622.92,8.83 1623.43,7.27"/>
    </edge>
    <edge id=":Mozart_w8" function="walkingarea">
        <lane id=":Mozart_w8_0" index="0" allow="pedestrian" speed="1.00" length="3.27" width="4.00" shape="1621.50,18.00 1617.50,18.00 1617.50,20.00 1617.50,20.00 1617.50,22.00 1617.50,22.80 1621.50,22.80"/>
    </edge>
    <edge id=":Mozart_w9" function="walkingarea">
        <lane id=":Mozart_w9_0" index="0" allow="pedestrian" speed="1.00" length="3.27" width="4.00" shape="1621.50,29.20 1617.50,29.20 1617.50,30.00 1617.50,32.00 1617.50,32.00 1617.50,34.00 1621.50,34.00"/>
    </edge>
    <edge id=":Ushiskin_0" function="internal">
        <lane id=":Ushiskin_0_0" index="0" disallow="pedestrian" speed="13.86" length="44.69" shape="2205.20,48.00 2206.44,32.78 2210.15,21.90 2216.34,15.38 2225.00,13.20"/>
    </edge>
    <edge id=":Ushiskin_1" function="internal">
        <lane id=":Ushiskin_1_0" index="0" disallow="pedestrian" speed="13.07" length="39.62" shape="2208.40,48.00 2209.44,34.17 2212.55,24.30 2217.74,18.37 2225.00,16.40"/>
    </edge>
    <edge id=":Ushiskin_2" function="internal">
        <lane id=":Ushiskin_2_0" index="0" disallow="pedestrian" speed="13.89" length="27.50" shape="2225.00,38.80 2197.50,38.80"/>
        <lane id=":Ushiskin_2_1" index="1" disallow="pedestrian" speed="13.89" length="27.50" shape="2225.00,35.60 2197.50,35.60"/>
    </edge>
    <edge id=":Ushiskin_4" function="internal">
        <lane id=":Ushiskin_4_0" index="0" allow="bus" speed="13.89" length="27.50" shape="2225.00,27.60 2197.50,27.60"/>
    </edge>
    <edge id=":Ushiskin_5" function="internal">
        <lane id=":Ushiskin_5_0" index="0" disallow="pedestrian" speed="13.89" length="27.50" shape="2197.50,13.20 2225.00,13.20"/>
        <lane id=":Ushiskin_5_1" index="1" disallow="pedestrian" speed="13.89" length="27.50" shape="2197.50,16.40 2225.00,16.40"/>
    </edge>
    <edge id=":Ushiskin_7" function="internal">
        <lane id=":Ushiskin_7_0" index="0" allow="bus" speed="13.89" length="27.50" shape="2197.50,24.40 2225.00,24.40"/>
    </edge>
    <edge id=":Ushiskin_c0" function="crossing" crossingEdges="gneE104.175">
        <lane id=":Ushiskin_c0_0" index="0" allow="pedestrian" speed="1.00" length="6.40" width="4.00" shape="2210.00,46.00 2203.60,46.00"/>
    </edge>
    <edge id=":Ushiskin_c1" function="crossing" crossingEdges="gneE73.75">
        <lane id=":Ushiskin_c1_0" index="0" allow="pedestrian" speed="1.00" length="6.40" width="4.00" shape="2199.50,18.00 2199.50,11.60"/>
    </edge>
    <edge id=":Ushiskin_c2" function="crossing" crossingEdges="gneE76 gneE75">
        <lane id=":Ushiskin_c2_0" index="0" allow="pedestrian" speed="1.00" length="6.40" width="4.00" shape="2199.50,29.20 2199.50,22.80"/>
    </edge>
    <edge id=":Ushiskin_c3" function="crossing" crossingEdges="gneE74">
        <lane id=":Ushiskin_c3_0" index="0" allow="pedestrian" speed="1.00" length="6.40" width="4.00" shape="2199.50,40.40 2199.50,34.00"/>
    </edge>
    <edge id=":Ushiskin_w0" function="walkingarea">
        <lane id=":Ushiskin_w0_0" index="0" allow="pedestrian" speed="1.00" length="5.40" width="4.00" shape="2197.50,40.40 2197.50,42.40 2197.50,43.00 2197.50,45.00 2199.50,48.00 2201.50,48.00 2201.60,48.00 2203.60,48.00 2203.43,45.68 2202.92,43.78 2202.08,42.30 2200.89,41.24 2199.36,40.61"/>
    </edge>
    <edge id=":Ushiskin_w1" function="walkingarea">
        <lane id=":Ushiskin_w1_0" index="0" allow="pedestrian" speed="1.00" length="9.76" width="4.00" shape="2210.00,48.00 2212.00,48.00 2212.00,48.00 2214.00,48.00 2225.00,45.00 2225.00,43.00 2225.00,42.40 2225.00,40.40 2220.42,40.61 2216.67,41.24 2213.75,42.30 2211.67,43.78 2210.42,45.68"/>
    </edge>
    <edge id=":Ushiskin_w2" function="walkingarea">
        <lane id=":Ushiskin_w2_0" index="0" allow="pedestrian" speed="1.00" length="17.16" width="4.00" shape="2225.00,11.60 2225.00,9.60 2225.00,9.50 2225.00,7.50 2197.50,7.47 2197.50,9.47 2197.50,9.60 2197.50,11.60 2201.50,11.60"/>
    </edge>
    <edge id=":Ushiskin_w3" function="walkingarea">
        <lane id=":Ushiskin_w3_0" index="0" allow="pedestrian" speed="1.00" length="3.27" width="4.00" shape="2201.50,18.00 2197.50,18.00 2197.50,20.00 2197.50,20.00 2197.50,22.00 2197.50,22.80 2201.50,22.80"/>
    </edge>
    <edge id=":Ushiskin_w4" function="walkingarea">
        <lane id=":Ushiskin_w4_0" index="0" allow="pedestrian" speed="1.00" length="3.27" width="4.00" shape="2201.50,29.20 2197.50,29.20 2197.50,30.00 2197.50,32.00 2197.50,32.00 2197.50,34.00 2201.50,34.00"/>
    </edge>
    <edge id=":Zvulun_0" function="internal">
        <lane id=":Zvulun_0_0" index="0" disallow="pedestrian" speed="7.92" length="13.88" shape="209.20,50.00 208.63,46.50 206.90,44.00 204.02,42.50 200.00,42.00"/>
    </edge>
    <edge id=":Zvulun_1" function="internal">
        <lane id=":Zvulun_1_0" index="0" disallow="pedestrian" speed="8.58" length="16.48" shape="209.20,50.00 208.63,45.10 206.90,41.60 204.02,39.50 200.00,38.80"/>
    </edge>
    <edge id=":Zvulun_2" function="internal">
        <lane id=":Zvulun_2_0" index="0" disallow="pedestrian" speed="9.76" length="21.63" shape="212.40,50.00 211.63,43.70 209.30,39.20 205.43,36.50 200.00,35.60"/>
    </edge>
    <edge id=":Zvulun_3" function="internal">
        <lane id=":Zvulun_3_0" index="0" disallow="pedestrian" speed="7.74" length="9.10" shape="228.00,42.00 224.33,42.50 221.70,44.00 220.44,46.00"/>
    </edge>
    <edge id=":Zvulun_4" function="internal">
        <lane id=":Zvulun_4_0" index="0" disallow="pedestrian" speed="13.89" length="28.08" shape="228.00,38.80 219.66,39.30 214.00,40.40 208.34,41.50 200.00,42.00"/>
        <lane id=":Zvulun_4_1" index="1" disallow="pedestrian" speed="13.89" length="28.08" shape="228.00,38.80 200.00,38.80"/>
        <lane id=":Zvulun_4_2" index="2" disallow="pedestrian" speed="13.89" length="28.08" shape="228.00,35.60 200.00,35.60"/>
    </edge>
    <edge id=":Zvulun_12" function="internal">
        <lane id=":Zvulun_12_0" index="0" disallow="pedestrian" speed="7.74" length="4.13" shape="220.44,46.00 220.13,46.50 219.60,50.00"/>
    </edge>
    <edge id=":Zvulun_7" function="internal">
        <lane id=":Zvulun_7_0" index="0" allow="bus" speed="13.89" length="28.07" shape="228.00,27.60 200.00,29.60"/>
    </edge>
    <edge id=":Zvulun_8" function="internal">
        <lane id=":Zvulun_8_0" index="0" disallow="pedestrian" speed="13.89" length="28.01" shape="200.00,14.00 228.00,13.20"/>
        <lane id=":Zvulun_8_1" index="1" disallow="pedestrian" speed="13.89" length="28.01" shape="200.00,17.20 228.00,16.40"/>
    </edge>
    <edge id=":Zvulun_10" function="internal">
        <lane id=":Zvulun_10_0" index="0" disallow="pedestrian" speed="13.13" length="35.98" shape="200.00,20.40 208.57,22.25 214.70,27.80 218.38,37.05 219.22,46.00"/>
    </edge>
    <edge id=":Zvulun_13" function="internal">
        <lane id=":Zvulun_13_0" index="0" disallow="pedestrian" speed="13.13" length="4.02" shape="219.22,46.00 219.60,50.00"/>
    </edge>
    <edge id=":Zvulun_11" function="internal">
        <lane id=":Zvulun_11_0" index="0" allow="bus" speed="13.89" length="28.07" shape="200.00,26.40 228.00,24.40"/>
    </edge>
    <edge id=":Zvulun_c0" function="crossing" crossingEdges="city_gneE16">
        <lane id=":Zvulun_c0_0" index="0" allow="pedestrian" speed="1.00" length="3.20" width="4.00" shape="221.20,48.00 218.00,48.00"/>
    </edge>
    <edge id=":Zvulun_c1" function="crossing" crossingEdges="gneE25.25">
        <lane id=":Zvulun_c1_0" index="0" allow="pedestrian" speed="1.00" length="9.60" width="4.00" shape="226.00,34.00 226.00,43.60"/>
    </edge>
    <edge id=":Zvulun_c2" function="crossing" crossingEdges="gneE21 gneE22">
        <lane id=":Zvulun_c2_0" index="0" allow="pedestrian" speed="1.00" length="6.40" width="4.00" shape="226.00,22.80 226.00,29.20"/>
    </edge>
    <edge id=":Zvulun_c3" function="crossing" crossingEdges="gneE23">
        <lane id=":Zvulun_c3_0" index="0" allow="pedestrian" speed="1.00" length="6.40" width="4.00" shape="226.00,11.60 226.00,18.00"/>
    </edge>
    <edge id=":Zvulun_c4" function="crossing" crossingEdges="city_gneE19">
        <lane id=":Zvulun_c4_0" index="0" allow="pedestrian" speed="1.00" length="6.40" width="4.00" shape="214.00,48.00 207.60,48.00"/>
    </edge>
    <edge id=":Zvulun_w0" function="walkingarea">
        <lane id=":Zvulun_w0_0" index="0" allow="pedestrian" speed="1.00" length="5.17" width="4.00" shape="221.20,50.00 223.20,50.00 223.50,50.00 225.50,50.00 228.00,48.00 228.00,46.00 228.00,45.60 228.00,43.60 225.92,43.78 224.22,44.31 222.90,45.20 221.96,46.44 221.39,48.04"/>
    </edge>
    <edge id=":Zvulun_w1" function="walkingarea">
        <lane id=":Zvulun_w1_0" index="0" allow="pedestrian" speed="1.00" length="3.26" width="4.00" shape="224.00,34.00 228.00,34.00 228.00,33.50 228.00,31.50 228.00,31.50 228.00,29.50 228.00,29.20 224.00,29.20"/>
    </edge>
    <edge id=":Zvulun_w2" function="walkingarea">
        <lane id=":Zvulun_w2_0" index="0" allow="pedestrian" speed="1.00" length="3.26" width="4.00" shape="224.00,22.80 228.00,22.80 228.00,22.50 228.00,20.50 228.00,20.50 228.00,18.50 228.00,18.00 224.00,18.00"/>
    </edge>
    <edge id=":Zvulun_w3" function="walkingarea">
        <lane id=":Zvulun_w3_0" index="0" allow="pedestrian" speed="1.00" length="17.82" width="4.00" shape="228.00,11.60 228.00,9.60 228.00,9.50 228.00,7.50 200.00,7.00 200.00,9.00 200.00,9.00 200.00,11.00 200.00,12.40 200.00,15.60 200.00,15.60 200.00,18.80 200.00,18.80 200.00,22.00 206.37,23.82 210.70,21.38 214.00,18.20 217.30,15.02 221.63,12.58"/>
    </edge>
    <edge id=":Zvulun_w4" function="walkingarea">
        <lane id=":Zvulun_w4_0" index="0" allow="pedestrian" speed="1.00" length="6.05" width="4.00" shape="200.00,34.00 200.00,37.20 200.00,37.20 200.00,40.40 200.00,40.40 200.00,43.60 200.00,44.00 200.00,46.00 200.00,46.00 200.00,48.00 203.50,50.00 205.50,50.00 205.60,50.00 207.60,50.00 207.39,44.26 206.76,39.56 205.70,35.90 204.22,33.29 202.32,31.72"/>
    </edge>
    <edge id=":Zvulun_w5" function="walkingarea">
        <lane id=":Zvulun_w5_0" index="0" allow="pedestrian" speed="1.00" length="2.95" width="4.00" shape="214.00,46.00 214.00,50.00 216.00,50.00 216.00,50.00 218.00,50.00 218.00,46.00"/>
    </edge>
    <edge id=":cluster_gneJ169_gneJ233_gneJ271_gneJ273_0" function="internal">
        <lane id=":cluster_gneJ169_gneJ233_gneJ271_gneJ273_0_0" index="0" disallow="pedestrian" speed="13.89" length="19.91" shape="551.90,6.80 558.97,6.02 563.77,3.96 568.04,1.05 570.10,-0.20"/>
    </edge>
    <edge id=":cluster_gneJ169_gneJ233_gneJ271_gneJ273_1" function="internal">
        <lane id=":cluster_gneJ169_gneJ233_gneJ271_gneJ273_1_0" index="0" disallow="pedestrian" speed="13.89" length="22.60" shape="551.90,6.80 574.51,6.80"/>
        <lane id=":cluster_gneJ169_gneJ233_gneJ271_gneJ273_1_1" index="1" disallow="pedestrian" speed="13.89" length="22.60" shape="551.90,10.00 574.51,10.00"/>
        <lane id=":cluster_gneJ169_gneJ233_gneJ271_gneJ273_1_2" index="2" disallow="pedestrian" speed="13.89" length="22.60" shape="551.90,13.20 574.51,13.20"/>
        <lane id=":cluster_gneJ169_gneJ233_gneJ271_gneJ273_1_3" index="3" disallow="pedestrian" speed="13.89" length="22.60" shape="551.90,16.40 574.51,16.40"/>
    </edge>
    <edge id=":cluster_gneJ169_gneJ233_gneJ271_gneJ273_5" function="internal">
        <lane id=":cluster_gneJ169_gneJ233_gneJ271_gneJ273_5_0" index="0" disallow="pedestrian" speed="13.89" length="4.01" shape="570.10,-0.20 573.52,-2.29"/>
    </edge>
    <edge id=":cluster_gneJ169_gneJ233_gneJ271_gneJ273_c0" function="crossing" crossingEdges="gneE63">
        <lane id=":cluster_gneJ169_gneJ233_gneJ271_gneJ273_c0_0" index="0" allow="pedestrian" speed="1.00" length="3.20" width="4.00" shape="571.01,-2.80 572.47,0.05"/>
    </edge>
    <edge id=":cluster_gneJ169_gneJ233_gneJ271_gneJ273_w0" function="walkingarea">
        <lane id=":cluster_gneJ169_gneJ233_gneJ271_gneJ273_w0_0" index="0" allow="pedestrian" speed="1.00" length="3.22" width="4.00" shape="574.51,5.20 574.51,3.20 574.51,3.00 574.51,1.00 574.25,-0.86 570.96,0.99 569.01,2.51 568.38,3.68 569.09,4.53 571.13,5.03"/>
    </edge>
    <edge id=":cluster_gneJ169_gneJ233_gneJ271_gneJ273_w1" function="walkingarea">