<?xml version="1.0" encoding="UTF-8"?>

<!-- generated on 05/17/20 20:37:35 by Eclipse SUMO netedit Version 1.6.0
<configuration xmlns:xsi="http://www.w3.org/2001/XMLSchema-instance" xsi:noNamespaceSchemaLocation="http://sumo.dlr.de/xsd/netconvertConfiguration.xsd">

    <input>
        <sumo-net-file value="C:\Users\Alexey\GDrive\projects\DeepRLight\Networks\Derech_akko_small\Network.net.xml"/>
    </input>

    <output>
        <output-file value="C:\Users\Alexey\GDrive\projects\DeepRLight\Networks\Derech_akko_small\Network.net.xml"/>
    </output>

    <processing>
        <geometry.min-radius.fix.railways value="false"/>
        <geometry.max-grade.fix value="false"/>
        <offset.disable-normalization value="true"/>
        <lefthand value="false"/>
    </processing>

    <junctions>
        <no-internal-links value="false"/>
        <no-turnarounds value="true"/>
        <junctions.corner-detail value="5"/>
        <junctions.limit-turn-speed value="5.5"/>
        <rectangular-lane-cut value="false"/>
    </junctions>

    <pedestrian>
        <walkingareas value="false"/>
    </pedestrian>

    <netedit>
        <additional-files value="C:\Users\Alexey\GDrive\projects\DeepRLight\Networks\Derech_akko_small\Additionals.add.xml"/>
    </netedit>

    <report>
        <aggregate-warnings value="5"/>
    </report>

</configuration>
-->

<net version="1.6" junctionCornerDetail="5" limitTurnSpeed="5.50" xmlns:xsi="http://www.w3.org/2001/XMLSchema-instance" xsi:noNamespaceSchemaLocation="http://sumo.dlr.de/xsd/net_file.xsd">

    <location netOffset="0.00,0.00" convBoundary="-2573.94,-138.68,-934.68,275.76" origBoundary="-10000000000.00,-10000000000.00,10000000000.00,10000000000.00" projParameter="!"/>

    <edge id=":AhiEilat_0" function="internal">
        <lane id=":AhiEilat_0_0" index="0" disallow="pedestrian rail_fast" speed="13.89" length="46.08" shape="-2123.41,80.66 -2123.53,34.59"/>
        <lane id=":AhiEilat_0_1" index="1" disallow="pedestrian rail_fast" speed="13.89" length="46.08" shape="-2120.21,80.67 -2120.33,34.58"/>
    </edge>
    <edge id=":AhiEilat_2" function="internal">
        <lane id=":AhiEilat_2_0" index="0" disallow="pedestrian rail_fast" speed="13.89" length="43.61" shape="-2120.21,80.67 -2118.35,68.08 -2112.68,59.09 -2103.21,53.69 -2093.94,52.44"/>
    </edge>
    <edge id=":AhiEilat_3" function="internal">
        <lane id=":AhiEilat_3_0" index="0" disallow="pedestrian rail_fast" speed="13.51" length="38.45" shape="-2117.01,80.68 -2115.34,69.48 -2110.28,61.49 -2101.81,56.70 -2093.94,55.64"/>
    </edge>
    <edge id=":AhiEilat_18" function="internal">
        <lane id=":AhiEilat_18_0" index="0" disallow="pedestrian rail_fast" speed="13.89" length="4.04" shape="-2093.94,52.44 -2089.94,51.90"/>
    </edge>
    <edge id=":AhiEilat_19" function="internal">
        <lane id=":AhiEilat_19_0" index="0" disallow="pedestrian rail_fast" speed="13.51" length="4.04" shape="-2093.94,55.64 -2089.94,55.10"/>
    </edge>
    <edge id=":AhiEilat_4" function="internal">
        <lane id=":AhiEilat_4_0" index="0" disallow="pedestrian rail_fast" speed="13.89" length="49.88" shape="-2089.95,75.10 -2139.73,71.90"/>
        <lane id=":AhiEilat_4_1" index="1" disallow="pedestrian rail_fast" speed="13.89" length="49.88" shape="-2089.95,71.90 -2139.73,68.70"/>
    </edge>
    <edge id=":AhiEilat_6" function="internal">
        <lane id=":AhiEilat_6_0" index="0" disallow="pedestrian rail_fast" speed="13.89" length="48.00" shape="-2089.95,68.70 -2103.22,66.57 -2112.71,60.17 -2118.41,49.51 -2119.82,38.58"/>
    </edge>
    <edge id=":AhiEilat_7" function="internal">
        <lane id=":AhiEilat_7_0" index="0" allow="bus" speed="13.89" length="49.78" shape="-2089.95,65.50 -2139.72,65.50"/>
    </edge>
    <edge id=":AhiEilat_20" function="internal">
        <lane id=":AhiEilat_20_0" index="0" disallow="pedestrian rail_fast" speed="13.89" length="4.03" shape="-2119.82,38.58 -2120.33,34.58"/>
    </edge>
    <edge id=":AhiEilat_8" function="internal">
        <lane id=":AhiEilat_8_0" index="0" disallow="pedestrian rail_fast" speed="13.89" length="53.66" shape="-2103.53,34.56 -2106.26,88.16"/>
        <lane id=":AhiEilat_8_1" index="1" disallow="pedestrian rail_fast" speed="13.89" length="53.66" shape="-2106.73,34.57 -2109.46,88.16"/>
    </edge>
    <edge id=":AhiEilat_10" function="internal">
        <lane id=":AhiEilat_10_0" index="0" disallow="pedestrian rail_fast" speed="13.89" length="54.29" shape="-2109.93,34.57 -2111.77,50.90 -2117.36,62.57 -2126.68,69.57 -2139.73,71.90"/>
    </edge>
    <edge id=":AhiEilat_11" function="internal">
        <lane id=":AhiEilat_11_0" index="0" disallow="pedestrian rail_fast" speed="13.89" length="49.13" shape="-2113.13,34.58 -2114.78,49.50 -2119.76,60.17 -2128.07,66.57 -2139.73,68.70"/>
    </edge>
    <edge id=":AhiEilat_12" function="internal">
        <lane id=":AhiEilat_12_0" index="0" disallow="pedestrian rail_fast" speed="13.89" length="60.66" shape="-2149.64,42.30 -2131.07,43.80 -2117.83,47.10 -2105.56,50.40 -2089.94,51.90"/>
        <lane id=":AhiEilat_12_1" index="1" disallow="pedestrian rail_fast" speed="13.89" length="60.66" shape="-2149.63,45.50 -2131.07,47.00 -2117.82,50.30 -2105.56,53.60 -2089.94,55.10"/>
    </edge>
    <edge id=":AhiEilat_14" function="internal">
        <lane id=":AhiEilat_14_0" index="0" disallow="pedestrian rail_fast" speed="13.89" length="62.79" shape="-2149.62,48.70 -2130.62,51.17 -2117.06,58.57 -2108.95,70.90 -2106.89,84.16"/>
    </edge>
    <edge id=":AhiEilat_15" function="internal">
        <lane id=":AhiEilat_15_0" index="0" disallow="pedestrian rail_fast" speed="13.89" length="57.61" shape="-2149.61,51.90 -2132.02,54.17 -2119.46,60.96 -2111.95,72.30 -2110.09,84.16"/>
    </edge>
    <edge id=":AhiEilat_16" function="internal">
        <lane id=":AhiEilat_16_0" index="0" allow="bus" speed="12.75" length="33.61" shape="-2149.60,55.10 -2138.18,53.82 -2130.03,49.97 -2125.15,43.56 -2124.25,38.59"/>
    </edge>
    <edge id=":AhiEilat_17" function="internal">
        <lane id=":AhiEilat_17_0" index="0" allow="bus" speed="13.89" length="59.64" shape="-2149.58,58.30 -2089.94,58.30"/>
    </edge>
    <edge id=":AhiEilat_21" function="internal">
        <lane id=":AhiEilat_21_0" index="0" disallow="pedestrian rail_fast" speed="13.89" length="4.05" shape="-2106.89,84.16 -2106.26,88.16"/>
    </edge>
    <edge id=":AhiEilat_22" function="internal">
        <lane id=":AhiEilat_22_0" index="0" disallow="pedestrian rail_fast" speed="13.89" length="4.05" shape="-2110.09,84.16 -2109.46,88.16"/>
    </edge>
    <edge id=":AhiEilat_23" function="internal">
        <lane id=":AhiEilat_23_0" index="0" allow="bus" speed="12.75" length="4.07" shape="-2124.25,38.59 -2123.53,34.59"/>
    </edge>
    <edge id=":AhiEilat_c0" function="crossing" crossingEdges="gneE84.17">
        <lane id=":AhiEilat_c0_0" index="0" allow="pedestrian" speed="1.00" length="6.40" width="4.00" shape="-2104.66,86.16 -2111.06,86.16"/>
    </edge>
    <edge id=":AhiEilat_c1" function="crossing" crossingEdges="gneE73.288">
        <lane id=":AhiEilat_c1_0" index="0" allow="pedestrian" speed="1.00" length="12.80" width="4.00" shape="-2091.95,63.90 -2091.95,76.70"/>
    </edge>
    <edge id=":AhiEilat_c2" function="crossing" crossingEdges="gneE74">
        <lane id=":AhiEilat_c2_0" index="0" allow="pedestrian" speed="1.00" length="9.60" width="4.00" shape="-2091.94,50.30 -2091.94,59.90"/>
    </edge>
    <edge id=":AhiEilat_c3" function="crossing" crossingEdges="gneE82.91">
        <lane id=":AhiEilat_c3_0" index="0" allow="pedestrian" speed="1.00" length="12.80" width="4.00" shape="-2114.73,36.58 -2101.93,36.56"/>
    </edge>
    <edge id=":AhiEilat_c4" function="crossing" crossingEdges="gneE83">
        <lane id=":AhiEilat_c4_0" index="0" allow="pedestrian" speed="1.00" length="6.40" width="4.00" shape="-2125.13,36.59 -2118.73,36.58"/>
    </edge>
    <edge id=":AhiEilat_c5" function="crossing" crossingEdges="gneE85.66">
        <lane id=":AhiEilat_c5_0" index="0" allow="pedestrian" speed="1.00" length="9.60" width="4.00" shape="-2115.41,78.67 -2125.01,78.66"/>
    </edge>
    <edge id=":AhiEilat_w0" function="walkingarea">
        <lane id=":AhiEilat_w0_0" index="0" allow="pedestrian" speed="1.00" length="11.82" width="4.00" shape="-2104.66,88.16 -2102.66,88.16 -2089.95,78.70 -2089.95,76.70 -2094.44,77.02 -2098.11,77.97 -2100.97,79.57 -2103.02,81.79 -2104.25,84.66"/>
    </edge>
    <edge id=":AhiEilat_w1" function="walkingarea">
        <lane id=":AhiEilat_w1_0" index="0" allow="pedestrian" speed="1.00" length="14.96" width="4.00" shape="-2093.95,63.90 -2089.94,63.90 -2089.94,61.90 -2089.94,61.90 -2089.94,59.90 -2093.94,59.90"/>
    </edge>
    <edge id=":AhiEilat_w2" function="walkingarea">
        <lane id=":AhiEilat_w2_0" index="0" allow="pedestrian" speed="1.00" length="12.58" width="4.00" shape="-2089.94,50.30 -2089.94,48.30 -2099.93,34.56 -2101.93,34.56 -2101.59,39.37 -2100.59,43.30 -2098.92,46.36 -2096.59,48.55 -2093.60,49.86"/>
    </edge>
    <edge id=":AhiEilat_w3" function="walkingarea">
        <lane id=":AhiEilat_w3_0" index="0" allow="pedestrian" speed="1.00" length="13.38" width="4.00" shape="-2114.72,38.58 -2114.73,34.58 -2116.73,34.58 -2116.73,34.58 -2118.73,34.58 -2118.72,38.58"/>
    </edge>
    <edge id=":AhiEilat_w4" function="walkingarea">
        <lane id=":AhiEilat_w4_0" index="0" allow="pedestrian" speed="1.00" length="17.01" width="4.00" shape="-2125.13,34.59 -2127.13,34.59 -2149.65,38.70 -2149.65,40.70 -2142.15,40.53 -2136.02,40.02 -2131.25,39.17 -2127.85,37.98 -2125.81,36.46"/>
    </edge>
    <edge id=":AhiEilat_w5" function="walkingarea">
        <lane id=":AhiEilat_w5_0" index="0" allow="pedestrian" speed="1.00" length="10.86" width="4.00" shape="-2139.74,73.50 -2139.74,75.50 -2127.01,80.66 -2125.01,80.65 -2125.42,78.48 -2126.65,76.68 -2128.70,75.29 -2131.56,74.30 -2135.24,73.70"/>
    </edge>
    <edge id=":AhiEilat_w6" function="walkingarea">
        <lane id=":AhiEilat_w6_0" index="0" allow="pedestrian" speed="1.00" length="11.79" width="4.00" shape="-2115.41,76.67 -2115.41,80.69 -2113.41,80.68 -2111.06,88.16 -2111.06,84.16"/>
    </edge>
    <edge id=":Mozart_0" function="internal">
        <lane id=":Mozart_0_0" index="0" disallow="pedestrian rail_fast" speed="13.89" length="39.65" shape="-1767.45,80.67 -1767.33,41.03"/>
        <lane id=":Mozart_0_1" index="1" disallow="pedestrian rail_fast" speed="13.89" length="39.65" shape="-1764.25,80.67 -1764.13,41.02"/>
    </edge>
    <edge id=":Mozart_2" function="internal">
        <lane id=":Mozart_2_0" index="0" allow="bus" speed="13.77" length="40.12" shape="-1764.25,80.67 -1759.75,74.20 -1749.19,66.79 -1736.97,60.71 -1731.47,59.26"/>
    </edge>
    <edge id=":Mozart_12" function="internal">
        <lane id=":Mozart_12_0" index="0" allow="bus" speed="13.77" length="4.14" shape="-1731.47,59.26 -1727.47,58.21"/>
    </edge>
    <edge id=":Mozart_3" function="internal">
        <lane id=":Mozart_3_0" index="0" disallow="pedestrian rail_fast" speed="13.89" length="47.99" shape="-1727.55,71.81 -1775.53,72.02"/>
        <lane id=":Mozart_3_1" index="1" disallow="pedestrian rail_fast" speed="13.89" length="47.99" shape="-1727.53,68.61 -1775.52,68.82"/>
        <lane id=":Mozart_3_2" index="2" allow="bus" speed="13.89" length="47.99" shape="-1727.51,65.41 -1775.51,65.62"/>
    </edge>
    <edge id=":Mozart_6" function="internal">
        <lane id=":Mozart_6_0" index="0" disallow="pedestrian rail_fast" speed="13.89" length="39.73" shape="-1733.73,40.93 -1733.85,80.67"/>
        <lane id=":Mozart_6_1" index="1" disallow="pedestrian rail_fast" speed="13.89" length="39.73" shape="-1736.93,40.94 -1737.05,80.67"/>
    </edge>
    <edge id=":Mozart_8" function="internal">
        <lane id=":Mozart_8_0" index="0" disallow="pedestrian rail_fast" speed="13.89" length="44.62" shape="-1736.93,40.94 -1741.70,48.61 -1752.88,57.83 -1765.74,65.58 -1771.52,67.49"/>
    </edge>
    <edge id=":Mozart_13" function="internal">
        <lane id=":Mozart_13_0" index="0" disallow="pedestrian rail_fast" speed="13.89" length="4.22" shape="-1771.52,67.49 -1775.52,68.82"/>
    </edge>
    <edge id=":Mozart_9" function="internal">
        <lane id=":Mozart_9_0" index="0" disallow="pedestrian rail_fast" speed="13.89" length="48.03" shape="-1775.47,52.02 -1727.43,51.81"/>
        <lane id=":Mozart_9_1" index="1" disallow="pedestrian rail_fast" speed="13.89" length="48.03" shape="-1775.48,55.22 -1727.45,55.01"/>
        <lane id=":Mozart_9_2" index="2" allow="bus" speed="13.89" length="48.03" shape="-1775.49,58.42 -1727.47,58.21"/>
    </edge>
    <edge id=":Mozart_c0" function="crossing" crossingEdges="gneE70.49">
        <lane id=":Mozart_c0_0" index="0" allow="pedestrian" speed="1.00" length="6.40" width="4.00" shape="-1762.65,78.67 -1769.05,78.67"/>
    </edge>
    <edge id=":Mozart_c1" function="crossing" crossingEdges="gneE69">
        <lane id=":Mozart_c1_0" index="0" allow="pedestrian" speed="1.00" length="6.40" width="4.00" shape="-1732.25,78.67 -1738.65,78.67"/>
    </edge>
    <edge id=":Mozart_c2" function="crossing" crossingEdges="gneE54.455">
        <lane id=":Mozart_c2_0" index="0" allow="pedestrian" speed="1.00" length="9.60" width="4.00" shape="-1729.50,63.80 -1729.56,73.40"/>
    </edge>
    <edge id=":Mozart_c3" function="crossing" crossingEdges="gneE55">
        <lane id=":Mozart_c3_0" index="0" allow="pedestrian" speed="1.00" length="9.60" width="4.00" shape="-1729.42,50.20 -1729.48,59.80"/>
    </edge>
    <edge id=":Mozart_c4" function="crossing" crossingEdges="gneE76.46">
        <lane id=":Mozart_c4_0" index="0" allow="pedestrian" speed="1.00" length="6.40" width="4.00" shape="-1738.52,42.94 -1732.12,42.92"/>
    </edge>
    <edge id=":Mozart_c5" function="crossing" crossingEdges="gneE75">
        <lane id=":Mozart_c5_0" index="0" allow="pedestrian" speed="1.00" length="6.40" width="4.00" shape="-1768.92,43.04 -1762.52,43.02"/>
    </edge>
    <edge id=":Mozart_c6" function="crossing" crossingEdges="gneE74.94">
        <lane id=":Mozart_c6_0" index="0" allow="pedestrian" speed="1.00" length="9.60" width="4.00" shape="-1773.49,60.03 -1773.46,50.43"/>
    </edge>
    <edge id=":Mozart_c7" function="crossing" crossingEdges="gneE73">
        <lane id=":Mozart_c7_0" index="0" allow="pedestrian" speed="1.00" length="9.60" width="4.00" shape="-1773.54,73.63 -1773.51,64.03"/>
    </edge>
    <edge id=":Mozart_w0" function="walkingarea">
        <lane id=":Mozart_w0_0" index="0" allow="pedestrian" speed="1.00" length="5.82" width="4.00" shape="-1775.54,73.62 -1775.54,75.62 -1771.05,80.67 -1769.05,80.67 -1769.23,78.52 -1769.77,76.76 -1770.67,75.39 -1771.93,74.41 -1773.55,73.82"/>
    </edge>
    <edge id=":Mozart_w1" function="walkingarea">
        <lane id=":Mozart_w1_0" index="0" allow="pedestrian" speed="1.00" length="23.51" width="12.00" shape="-1762.65,76.67 -1762.65,80.67 -1750.65,80.67 -1750.65,80.67 -1738.65,80.67 -1738.65,76.67"/>
    </edge>
    <edge id=":Mozart_w2" function="walkingarea">
        <lane id=":Mozart_w2_0" index="0" allow="pedestrian" speed="1.00" length="5.24" width="4.00" shape="-1732.25,80.67 -1730.25,80.67 -1727.57,75.41 -1727.56,73.41 -1728.99,73.60 -1730.17,74.20 -1731.08,75.21 -1731.73,76.62 -1732.12,78.44"/>
    </edge>
    <edge id=":Mozart_w3" function="walkingarea">
        <lane id=":Mozart_w3_0" index="0" allow="pedestrian" speed="1.00" length="13.37" width="4.00" shape="-1731.50,63.79 -1727.50,63.81 -1727.49,61.81 -1727.49,61.81 -1727.48,59.81 -1731.48,59.79"/>
    </edge>
    <edge id=":Mozart_w4" function="walkingarea">
        <lane id=":Mozart_w4_0" index="0" allow="pedestrian" speed="1.00" length="6.43" width="4.00" shape="-1727.42,50.21 -1727.41,48.21 -1730.13,40.92 -1732.13,40.92 -1731.99,43.75 -1731.59,46.07 -1730.94,47.87 -1730.02,49.17 -1728.85,49.94"/>
    </edge>
    <edge id=":Mozart_w5" function="walkingarea">
        <lane id=":Mozart_w5_0" index="0" allow="pedestrian" speed="1.00" length="23.51" width="12.00" shape="-1738.52,44.94 -1738.53,40.94 -1750.53,40.98 -1750.53,40.98 -1762.53,41.02 -1762.52,45.02"/>
    </edge>
    <edge id=":Mozart_w6" function="walkingarea">
        <lane id=":Mozart_w6_0" index="0" allow="pedestrian" speed="1.00" length="7.06" width="4.00" shape="-1768.93,41.04 -1770.93,41.04 -1775.46,48.42 -1775.46,50.42 -1773.46,50.16 -1771.82,49.39 -1770.55,48.08 -1769.64,46.26 -1769.10,43.91"/>
    </edge>
    <edge id=":Mozart_w7" function="walkingarea">
        <lane id=":Mozart_w7_0" index="0" allow="pedestrian" speed="1.00" length="13.37" width="4.00" shape="-1771.49,60.03 -1775.49,60.02 -1775.50,62.02 -1775.50,62.02 -1775.51,64.02 -1771.51,64.03"/>
    </edge>
    <edge id=":Ushiskin_0" function="internal">
        <lane id=":Ushiskin_0_0" index="0" disallow="pedestrian rail_fast" speed="12.10" length="33.79" shape="-1249.28,77.49 -1248.29,66.29 -1245.32,58.29 -1240.37,53.49 -1233.43,51.89"/>
    </edge>
    <edge id=":Ushiskin_1" function="internal">
        <lane id=":Ushiskin_1_0" index="0" disallow="pedestrian rail_fast" speed="11.18" length="28.70" shape="-1246.08,77.49 -1245.29,67.69 -1242.92,60.69 -1238.97,56.49 -1233.43,55.09"/>
    </edge>
    <edge id=":Ushiskin_2" function="internal">
        <lane id=":Ushiskin_2_0" index="0" disallow="pedestrian rail_fast" speed="13.89" length="22.73" shape="-1233.43,71.89 -1256.16,71.89"/>
        <lane id=":Ushiskin_2_1" index="1" disallow="pedestrian rail_fast" speed="13.89" length="22.73" shape="-1233.43,68.69 -1256.16,68.69"/>
        <lane id=":Ushiskin_2_2" index="2" allow="bus" speed="13.89" length="22.73" shape="-1233.43,65.49 -1256.16,65.49"/>
    </edge>
    <edge id=":Ushiskin_5" function="internal">
        <lane id=":Ushiskin_5_0" index="0" disallow="pedestrian rail_fast" speed="13.89" length="22.73" shape="-1256.16,51.89 -1233.43,51.89"/>
        <lane id=":Ushiskin_5_1" index="1" disallow="pedestrian rail_fast" speed="13.89" length="22.73" shape="-1256.16,55.09 -1233.43,55.09"/>
        <lane id=":Ushiskin_5_2" index="2" allow="bus" speed="13.89" length="22.73" shape="-1256.16,58.29 -1233.43,58.29"/>
    </edge>
    <edge id=":Ushiskin_c0" function="crossing" crossingEdges="gneE53.48">
        <lane id=":Ushiskin_c0_0" index="0" allow="pedestrian" speed="1.00" length="6.40" width="4.00" shape="-1244.48,75.49 -1250.88,75.49"/>
    </edge>
    <edge id=":Ushiskin_c1" function="crossing" crossingEdges="gneE55.141">
        <lane id=":Ushiskin_c1_0" index="0" allow="pedestrian" speed="1.00" length="9.60" width="4.00" shape="-1254.16,59.89 -1254.16,50.29"/>
    </edge>
    <edge id=":Ushiskin_c2" function="crossing" crossingEdges="gneE54">
        <lane id=":Ushiskin_c2_0" index="0" allow="pedestrian" speed="1.00" length="9.60" width="4.00" shape="-1254.16,73.49 -1254.16,63.89"/>
    </edge>
    <edge id=":Ushiskin_w0" function="walkingarea">
        <lane id=":Ushiskin_w0_0" index="0" allow="pedestrian" speed="1.00" length="3.92" width="4.00" shape="-1256.16,73.49 -1256.16,75.49 -1252.88,77.49 -1250.88,77.49 -1251.03,76.27 -1251.47,75.27 -1252.20,74.49 -1253.23,73.93 -1254.55,73.60"/>
    </edge>
    <edge id=":Ushiskin_w1" function="walkingarea">
        <lane id=":Ushiskin_w1_0" index="0" allow="pedestrian" speed="1.00" length="12.49" width="4.00" shape="-1244.48,77.49 -1242.48,77.49 -1233.43,75.49 -1233.43,73.49 -1236.80,73.60 -1239.57,73.94 -1241.72,74.49 -1243.25,75.27 -1244.17,76.27"/>
    </edge>
    <edge id=":Ushiskin_w2" function="walkingarea">
        <lane id=":Ushiskin_w2_0" index="0" allow="pedestrian" speed="1.00" length="15.24" width="4.00" shape="-1233.43,50.29 -1233.43,48.29 -1256.16,48.29 -1256.16,50.29 -1252.16,50.29"/>
    </edge>
    <edge id=":Ushiskin_w3" function="walkingarea">
        <lane id=":Ushiskin_w3_0" index="0" allow="pedestrian" speed="1.00" length="13.37" width="4.00" shape="-1252.16,59.89 -1256.16,59.89 -1256.16,61.89 -1256.16,61.89 -1256.16,63.89 -1252.16,63.89"/>
    </edge>
    <edge id=":Zvulun_0" function="internal">
        <lane id=":Zvulun_0_0" index="0" allow="pedestrian" speed="6.55" length="9.56" width="2.00" shape="-2409.04,82.53 -2409.46,80.31 -2410.73,78.72 -2412.83,77.77 -2415.78,77.45"/>
    </edge>
    <edge id=":Zvulun_1" function="internal">
        <lane id=":Zvulun_1_0" index="0" disallow="pedestrian rail_fast" speed="7.89" length="13.74" shape="-2406.44,82.53 -2407.03,79.17 -2408.78,76.77 -2411.69,75.33 -2415.77,74.85"/>
    </edge>
    <edge id=":Zvulun_2" function="internal">
        <lane id=":Zvulun_2_0" index="0" disallow="pedestrian rail_fast" speed="8.54" length="16.31" shape="-2406.44,82.53 -2407.03,77.77 -2408.78,74.37 -2411.69,72.33 -2415.77,71.65"/>
    </edge>
    <edge id=":Zvulun_3" function="internal">
        <lane id=":Zvulun_3_0" index="0" disallow="pedestrian rail_fast" speed="9.73" length="21.46" shape="-2403.24,82.52 -2404.03,76.37 -2406.38,71.97 -2410.29,69.33 -2415.77,68.45"/>
    </edge>
    <edge id=":Zvulun_4" function="internal">
        <lane id=":Zvulun_4_0" index="0" allow="pedestrian" speed="5.44" length="2.10" width="2.00" shape="-2390.41,77.70 -2391.74,78.00 -2392.28,78.51"/>
    </edge>
    <edge id=":Zvulun_5" function="internal">
        <lane id=":Zvulun_5_0" index="0" disallow="pedestrian rail_fast" speed="6.98" length="6.47" shape="-2390.41,75.10 -2392.88,75.56 -2394.64,76.95 -2395.35,78.52"/>
    </edge>
    <edge id=":Zvulun_6" function="internal">
        <lane id=":Zvulun_6_0" index="0" disallow="pedestrian rail_fast" speed="13.89" length="25.42" shape="-2390.41,71.90 -2397.96,72.36 -2403.09,73.38 -2408.22,74.39 -2415.77,74.85"/>
        <lane id=":Zvulun_6_1" index="1" disallow="pedestrian rail_fast" speed="13.89" length="25.42" shape="-2390.41,71.90 -2415.77,71.65"/>
        <lane id=":Zvulun_6_2" index="2" disallow="pedestrian rail_fast" speed="13.89" length="25.42" shape="-2390.41,68.70 -2415.77,68.45"/>
        <lane id=":Zvulun_6_3" index="3" allow="bus" speed="13.89" length="25.42" shape="-2390.41,65.50 -2415.77,65.25"/>
    </edge>
    <edge id=":Zvulun_15" function="internal">
        <lane id=":Zvulun_15_0" index="0" allow="pedestrian" speed="5.44" length="4.29" width="2.00" shape="-2392.28,78.51 -2392.68,78.90 -2393.25,80.41 -2393.44,82.51"/>
    </edge>
    <edge id=":Zvulun_16" function="internal">
        <lane id=":Zvulun_16_0" index="0" disallow="pedestrian rail_fast" speed="6.98" length="4.09" shape="-2395.35,78.52 -2395.69,79.27 -2396.04,82.52"/>
    </edge>
    <edge id=":Zvulun_10" function="internal">
        <lane id=":Zvulun_10_0" index="0" allow="pedestrian" speed="13.89" length="25.36" width="2.00" shape="-2415.76,49.85 -2390.41,49.30"/>
        <lane id=":Zvulun_10_1" index="1" disallow="pedestrian rail_fast" speed="13.89" length="25.36" shape="-2415.76,52.45 -2390.41,51.90"/>
        <lane id=":Zvulun_10_2" index="2" disallow="pedestrian rail_fast" speed="13.89" length="25.36" shape="-2415.76,55.65 -2390.41,55.10"/>
    </edge>
    <edge id=":Zvulun_13" function="internal">
        <lane id=":Zvulun_13_0" index="0" disallow="pedestrian rail_fast" speed="12.32" length="31.01" shape="-2415.77,58.85 -2407.14,60.33 -2400.98,64.77 -2397.28,72.17 -2396.52,78.52"/>
    </edge>
    <edge id=":Zvulun_14" function="internal">
        <lane id=":Zvulun_14_0" index="0" allow="bus" speed="13.89" length="25.72" shape="-2415.77,62.05 -2408.20,61.47 -2403.09,60.18 -2397.98,58.89 -2390.41,58.30"/>
    </edge>
    <edge id=":Zvulun_17" function="internal">
        <lane id=":Zvulun_17_0" index="0" disallow="pedestrian rail_fast" speed="12.32" length="4.03" shape="-2396.52,78.52 -2396.04,82.52"/>
    </edge>
    <edge id=":Zvulun_c0" function="crossing" crossingEdges="gneE93.57">
        <lane id=":Zvulun_c0_0" index="0" allow="pedestrian" speed="1.00" length="6.40" width="4.00" shape="-2401.64,80.52 -2408.04,80.53"/>
    </edge>
    <edge id=":Zvulun_c1" function="crossing" crossingEdges="gneE92">
        <lane id=":Zvulun_c1_0" index="0" allow="pedestrian" speed="1.00" length="3.20" width="4.00" shape="-2394.44,80.52 -2397.64,80.52"/>
    </edge>
    <edge id=":Zvulun_c2" function="crossing" crossingEdges="gneE86.205">
        <lane id=":Zvulun_c2_0" index="0" allow="pedestrian" speed="1.00" length="12.80" width="4.00" shape="-2392.41,63.90 -2392.41,76.70"/>
    </edge>
    <edge id=":Zvulun_c3" function="crossing" crossingEdges="gneE87">
        <lane id=":Zvulun_c3_0" index="0" allow="pedestrian" speed="1.00" length="9.60" width="4.00" shape="-2392.41,50.30 -2392.41,59.90"/>
    </edge>
    <edge id=":Zvulun_w0" function="walkingarea">
        <lane id=":Zvulun_w0_0" index="0" allow="pedestrian" speed="1.00" length="6.33" width="4.00" shape="-2415.78,76.45 -2415.78,78.45 -2410.04,82.53 -2408.04,82.53 -2408.26,80.67 -2408.90,79.15 -2409.98,77.97 -2411.48,77.13 -2413.41,76.62"/>
    </edge>
    <edge id=":Zvulun_w1" function="walkingarea">
        <lane id=":Zvulun_w1_0" index="0" allow="pedestrian" speed="1.00" length="8.66" width="4.00" shape="-2401.64,78.52 -2401.64,82.52 -2399.64,82.52 -2399.64,82.52 -2397.64,82.52 -2397.64,78.52"/>
    </edge>
    <edge id=":Zvulun_w2" function="walkingarea">
        <lane id=":Zvulun_w2_0" index="0" allow="pedestrian" speed="1.00" length="4.22" width="4.00" shape="-2394.44,82.52 -2392.44,82.51 -2390.41,78.70 -2390.41,76.70 -2391.64,76.86 -2392.65,77.35 -2393.43,78.15 -2393.99,79.28 -2394.33,80.74"/>
    </edge>
    <edge id=":Zvulun_w3" function="walkingarea">
        <lane id=":Zvulun_w3_0" index="0" allow="pedestrian" speed="1.00" length="14.96" width="4.00" shape="-2394.41,63.90 -2390.41,63.90 -2390.41,61.90 -2390.41,61.90 -2390.41,59.90 -2394.41,59.90"/>
    </edge>
    <edge id=":Zvulun_w4" function="walkingarea">
        <lane id=":Zvulun_w4_0" index="0" allow="pedestrian" speed="1.00" length="16.98" width="4.00" shape="-2394.41,50.30 -2390.41,50.30 -2390.41,48.30 -2415.76,48.85 -2415.76,50.85"/>
    </edge>
    <edge id=":cluster_cluster_gneJ372_gneJ376_gneJ386_0" function="internal">
        <lane id=":cluster_cluster_gneJ372_gneJ376_gneJ386_0_0" index="0" disallow="pedestrian rail_fast" speed="13.89" length="20.41" shape="-1818.16,80.20 -1823.90,78.20 -1827.80,76.58 -1831.79,75.49 -1837.75,75.10"/>
    </edge>
    <edge id=":cluster_cluster_gneJ372_gneJ376_gneJ386_1" function="internal">
        <lane id=":cluster_cluster_gneJ372_gneJ376_gneJ386_1_0" index="0" disallow="pedestrian rail_fast" speed="13.89" length="21.14" shape="-1816.61,71.90 -1837.75,71.90"/>
        <lane id=":cluster_cluster_gneJ372_gneJ376_gneJ386_1_1" index="1" disallow="pedestrian rail_fast" speed="13.89" length="21.14" shape="-1816.61,68.70 -1837.75,68.70"/>
        <lane id=":cluster_cluster_gneJ372_gneJ376_gneJ386_1_2" index="2" allow="bus" speed="13.89" length="21.14" shape="-1816.61,65.50 -1837.75,65.50"/>
    </edge>
    <edge id=":cluster_cluster_gneJ372_gneJ376_gneJ386_w0" function="walkingarea">
        <lane id=":cluster_cluster_gneJ372_gneJ376_gneJ386_w0_0" index="0" allow="pedestrian" speed="1.00" length="19.27" width="2.00" shape="-1837.75,76.70 -1837.75,78.70 -1819.40,83.59 -1818.84,81.67 -1822.64,80.39 -1825.60,79.19 -1828.03,78.17 -1830.50,77.38 -1833.56,76.88"/>
    </edge>
    <edge id=":cluster_cluster_gneJ372_gneJ376_gneJ386_w1" function="walkingarea">
        <lane id=":cluster_cluster_gneJ372_gneJ376_gneJ386_w1_0" index="0" allow="pedestrian" speed="1.00" length="8.51" width="2.00" shape="-1817.49,78.73 -1816.93,76.81 -1816.61,75.50 -1816.61,73.50 -1821.82,73.64 -1825.01,74.07 -1826.20,74.79 -1825.38,75.80 -1822.55,77.09"/>
    </edge>
    <edge id=":cluster_cluster_gneJ445_gneJ459_gneJ465_gneJ472_w0" function="walkingarea">
        <lane id=":cluster_cluster_gneJ445_gneJ459_gneJ465_gneJ472_w0_0" index="0" allow="pedestrian" speed="1.00" length="21.20" width="3.20" shape="-2573.94,63.75 -2573.95,60.55 -2573.95,60.55 -2573.95,57.35 -2573.95,57.35 -2573.96,54.15 -2573.96,54.15 -2573.96,52.15 -2573.93,75.35 -2573.93,73.35"/>
    </edge>
    <edge id=":cluster_gneJ271_gneJ285_0" function="internal">
        <lane id=":cluster_gneJ271_gneJ285_0_0" index="0" disallow="pedestrian rail_fast" speed="13.89" length="26.70" shape="-1182.76,71.88 -1190.50,72.49 -1195.61,74.21 -1200.52,76.88 -1207.68,80.35"/>
    </edge>
    <edge id=":cluster_gneJ271_gneJ285_1" function="internal">
        <lane id=":cluster_gneJ271_gneJ285_1_0" index="0" disallow="pedestrian rail_fast" speed="13.89" length="26.62" shape="-1182.76,71.88 -1209.38,71.88"/>
        <lane id=":cluster_gneJ271_gneJ285_1_1" index="1" disallow="pedestrian rail_fast" speed="13.89" length="26.62" shape="-1182.76,68.68 -1209.38,68.68"/>
        <lane id=":cluster_gneJ271_gneJ285_1_2" index="2" allow="bus" speed="13.89" length="26.62" shape="-1182.76,65.48 -1209.39,65.48"/>
    </edge>
    <edge id=":cluster_gneJ271_gneJ285_w0" function="walkingarea">
        <lane id=":cluster_gneJ271_gneJ285_w0_0" index="0" allow="pedestrian" speed="1.00" length="25.30" width="2.00" shape="-1207.06,81.82 -1206.29,83.67 -1182.76,75.48 -1182.76,73.48 -1188.20,73.75 -1192.14,74.54 -1195.29,75.79 -1198.35,77.45 -1202.04,79.48"/>
    </edge>
    <edge id=":cluster_gneJ271_gneJ285_w1" function="walkingarea">
        <lane id=":cluster_gneJ271_gneJ285_w1_0" index="0" allow="pedestrian" speed="1.00" length="8.70" width="2.00" shape="-1209.38,73.48 -1209.38,75.48 -1209.07,77.03 -1208.30,78.87 -1204.76,77.23 -1202.70,75.88 -1202.14,74.83 -1203.07,74.08 -1205.48,73.63"/>
    </edge>
    <edge id=":cluster_gneJ287_gneJ293_0" function="internal">
        <lane id=":cluster_gneJ287_gneJ293_0_0" index="0" disallow="pedestrian rail_fast" speed="13.89" length="11.76" shape="-1249.28,121.39 -1249.85,116.99 -1251.47,114.29 -1253.94,111.87 -1254.42,111.33"/>
    </edge>
    <edge id=":cluster_gneJ287_gneJ293_1" function="internal">